/*---------------------------------------------------------------------------*\
| =========                 |                                                 |
| \\      /  F ield         | OpenFOAM: The Open Source CFD Toolbox           |
|  \\    /   O peration     | Version:  2412                                  |
|   \\  /    A nd           | Website:  www.openfoam.com                      |
|    \\/     M anipulation  |                                                 |
\*---------------------------------------------------------------------------*/
Build  : _f00230df-20250528 OPENFOAM=2412 patch=250528 version=2412
Arch   : "LSB;label=32;scalar=64"
Exec   : buoyantBoussinesqSimpleFoam
Date   : Jul 08 2025
Time   : 12:30:28
Host   : jpsrocha
PID    : 255326
I/O    : uncollated
Case   : /home/jpsrocha/Documents/simulation_data/bernard_cell_openfoam
nProcs : 1
trapFpe: Floating point exception trapping enabled (FOAM_SIGFPE).
fileModificationChecking : Monitoring run-time modified files using timeStampMaster (fileModificationSkew 5, maxFileModificationPolls 20)
allowSystemOperations : Allowing user-supplied system call operations

// * * * * * * * * * * * * * * * * * * * * * * * * * * * * * * * * * * * * * //
Create time

Create mesh for time = 0


SIMPLE: convergence criteria
    field p_rgh	 tolerance 0.01
    field U	 tolerance 0.0001
    field T	 tolerance 0.01
    field "(k|epsilon|omega)"	 tolerance 0.001

Reading thermophysical properties

Reading field T

Reading field p_rgh

Reading field U

Reading/calculating face flux field phi

Selecting incompressible transport model Newtonian
Creating turbulence model

Selecting turbulence model type laminar
Selecting laminar stress model Stokes
Reading field alphat


Reading g

Reading hRef
Calculating field g.h

No MRF models present

Radiation model not active: radiationProperties not found
Selecting radiationModel none
No finite volume options present

Starting time loop

Time = 1

DILUPBiCGStab:  Solving for Ux, Initial residual = 0.00331275, Final residual = 1.47129e-05, No Iterations 1
DILUPBiCGStab:  Solving for Uy, Initial residual = 2.63515e-18, Final residual = 2.63515e-18, No Iterations 0
DILUPBiCGStab:  Solving for T, Initial residual = 1, Final residual = 0.0162455, No Iterations 1
DICPCG:  Solving for p_rgh, Initial residual = 1, Final residual = 0.00980442, No Iterations 31
time step continuity errors : sum local = 7.78439e-06, global = -2.72654e-21, cumulative = -2.72654e-21
ExecutionTime = 0.26 s  ClockTime = 0 s

Time = 2

DILUPBiCGStab:  Solving for Ux, Initial residual = 0.286068, Final residual = 0.00140407, No Iterations 1
DILUPBiCGStab:  Solving for Uy, Initial residual = 0.285524, Final residual = 0.00150034, No Iterations 1
DILUPBiCGStab:  Solving for T, Initial residual = 0.190036, Final residual = 0.00380053, No Iterations 1
DICPCG:  Solving for p_rgh, Initial residual = 0.421727, Final residual = 0.00373433, No Iterations 172
time step continuity errors : sum local = 6.46022e-06, global = -3.41982e-22, cumulative = -3.06852e-21
ExecutionTime = 0.4 s  ClockTime = 0 s

Time = 3

DILUPBiCGStab:  Solving for Ux, Initial residual = 0.519953, Final residual = 0.00278324, No Iterations 1
DILUPBiCGStab:  Solving for Uy, Initial residual = 0.0914014, Final residual = 0.000425597, No Iterations 1
DILUPBiCGStab:  Solving for T, Initial residual = 0.0947768, Final residual = 0.00213625, No Iterations 1
DICPCG:  Solving for p_rgh, Initial residual = 0.207003, Final residual = 0.00194629, No Iterations 88
time step continuity errors : sum local = 5.47675e-06, global = -2.70053e-21, cumulative = -5.76905e-21
ExecutionTime = 0.48 s  ClockTime = 0 s

Time = 4

DILUPBiCGStab:  Solving for Ux, Initial residual = 0.431498, Final residual = 0.00100516, No Iterations 1
DILUPBiCGStab:  Solving for Uy, Initial residual = 0.198297, Final residual = 0.00140789, No Iterations 1
DILUPBiCGStab:  Solving for T, Initial residual = 0.0591244, Final residual = 0.00138551, No Iterations 1
DICPCG:  Solving for p_rgh, Initial residual = 0.133805, Final residual = 0.00128603, No Iterations 179
time step continuity errors : sum local = 3.53546e-06, global = -2.49738e-22, cumulative = -6.01879e-21
ExecutionTime = 0.62 s  ClockTime = 0 s

Time = 5

DILUPBiCGStab:  Solving for Ux, Initial residual = 0.61257, Final residual = 0.00379018, No Iterations 1
DILUPBiCGStab:  Solving for Uy, Initial residual = 0.25103, Final residual = 0.00159519, No Iterations 1
DILUPBiCGStab:  Solving for T, Initial residual = 0.0415028, Final residual = 0.000941379, No Iterations 1
DICPCG:  Solving for p_rgh, Initial residual = 0.101054, Final residual = 0.00100741, No Iterations 70
time step continuity errors : sum local = 3.13987e-06, global = -2.22659e-21, cumulative = -8.24537e-21
ExecutionTime = 0.7 s  ClockTime = 0 s

Time = 6

DILUPBiCGStab:  Solving for Ux, Initial residual = 0.401009, Final residual = 0.00270673, No Iterations 1
DILUPBiCGStab:  Solving for Uy, Initial residual = 0.173317, Final residual = 0.00100964, No Iterations 1
DILUPBiCGStab:  Solving for T, Initial residual = 0.0313697, Final residual = 0.000650294, No Iterations 1
DICPCG:  Solving for p_rgh, Initial residual = 0.11344, Final residual = 0.000918288, No Iterations 89
time step continuity errors : sum local = 3.15838e-06, global = 4.1574e-21, cumulative = -4.08797e-21
ExecutionTime = 0.79 s  ClockTime = 1 s

Time = 7

DILUPBiCGStab:  Solving for Ux, Initial residual = 0.475686, Final residual = 0.00114691, No Iterations 1
DILUPBiCGStab:  Solving for Uy, Initial residual = 0.181157, Final residual = 0.00131254, No Iterations 1
DILUPBiCGStab:  Solving for T, Initial residual = 0.0249697, Final residual = 0.000455393, No Iterations 1
DICPCG:  Solving for p_rgh, Initial residual = 0.103021, Final residual = 0.00100174, No Iterations 173
time step continuity errors : sum local = 3.08842e-06, global = 7.92805e-25, cumulative = -4.08718e-21
ExecutionTime = 0.92 s  ClockTime = 1 s

Time = 8

DILUPBiCGStab:  Solving for Ux, Initial residual = 0.54969, Final residual = 0.00293061, No Iterations 1
DILUPBiCGStab:  Solving for Uy, Initial residual = 0.132795, Final residual = 0.000573905, No Iterations 1
DILUPBiCGStab:  Solving for T, Initial residual = 0.0206386, Final residual = 0.000366843, No Iterations 1
DICPCG:  Solving for p_rgh, Initial residual = 0.0868251, Final residual = 0.000861778, No Iterations 63
time step continuity errors : sum local = 3.04207e-06, global = 1.36179e-21, cumulative = -2.72538e-21
ExecutionTime = 0.99 s  ClockTime = 1 s

Time = 9

DILUPBiCGStab:  Solving for Ux, Initial residual = 0.319665, Final residual = 0.00162601, No Iterations 1
DILUPBiCGStab:  Solving for Uy, Initial residual = 0.083021, Final residual = 0.000485044, No Iterations 1
DILUPBiCGStab:  Solving for T, Initial residual = 0.0175582, Final residual = 0.000295214, No Iterations 1
DICPCG:  Solving for p_rgh, Initial residual = 0.0733246, Final residual = 0.000586809, No Iterations 89
time step continuity errors : sum local = 2.34378e-06, global = -1.66073e-21, cumulative = -4.38611e-21
ExecutionTime = 1.08 s  ClockTime = 1 s

Time = 10

DILUPBiCGStab:  Solving for Ux, Initial residual = 0.434668, Final residual = 0.0011023, No Iterations 1
DILUPBiCGStab:  Solving for Uy, Initial residual = 0.142864, Final residual = 0.000940669, No Iterations 1
DILUPBiCGStab:  Solving for T, Initial residual = 0.015269, Final residual = 0.00023725, No Iterations 1
DICPCG:  Solving for p_rgh, Initial residual = 0.0679622, Final residual = 0.000653087, No Iterations 171
time step continuity errors : sum local = 2.21628e-06, global = -2.43294e-22, cumulative = -4.6294e-21
ExecutionTime = 1.21 s  ClockTime = 1 s

Time = 11

DILUPBiCGStab:  Solving for Ux, Initial residual = 0.423484, Final residual = 0.0021033, No Iterations 1
DILUPBiCGStab:  Solving for Uy, Initial residual = 0.122006, Final residual = 0.000805235, No Iterations 1
DILUPBiCGStab:  Solving for T, Initial residual = 0.0135056, Final residual = 0.000191551, No Iterations 1
DICPCG:  Solving for p_rgh, Initial residual = 0.0628228, Final residual = 0.000627587, No Iterations 65
time step continuity errors : sum local = 2.3542e-06, global = 3.32379e-22, cumulative = -4.29702e-21
ExecutionTime = 1.29 s  ClockTime = 1 s

Time = 12

DILUPBiCGStab:  Solving for Ux, Initial residual = 0.237625, Final residual = 0.00107663, No Iterations 1
DILUPBiCGStab:  Solving for Uy, Initial residual = 0.0723471, Final residual = 0.000536473, No Iterations 1
DILUPBiCGStab:  Solving for T, Initial residual = 0.0121142, Final residual = 0.000155995, No Iterations 1
DICPCG:  Solving for p_rgh, Initial residual = 0.0576857, Final residual = 0.000532714, No Iterations 88
time step continuity errors : sum local = 2.15527e-06, global = 1.27123e-21, cumulative = -3.02579e-21
ExecutionTime = 1.37 s  ClockTime = 1 s

Time = 13

DILUPBiCGStab:  Solving for Ux, Initial residual = 0.34711, Final residual = 0.000965446, No Iterations 1
DILUPBiCGStab:  Solving for Uy, Initial residual = 0.125668, Final residual = 0.000795821, No Iterations 1
DILUPBiCGStab:  Solving for T, Initial residual = 0.0109906, Final residual = 0.000128371, No Iterations 1
DICPCG:  Solving for p_rgh, Initial residual = 0.0525493, Final residual = 0.000499842, No Iterations 169
time step continuity errors : sum local = 1.70605e-06, global = -2.97434e-22, cumulative = -3.32322e-21
ExecutionTime = 1.5 s  ClockTime = 1 s

Time = 14

DILUPBiCGStab:  Solving for Ux, Initial residual = 0.312452, Final residual = 0.00141929, No Iterations 1
DILUPBiCGStab:  Solving for Uy, Initial residual = 0.110304, Final residual = 0.000600446, No Iterations 1
DILUPBiCGStab:  Solving for T, Initial residual = 0.010061, Final residual = 0.000106816, No Iterations 1
DICPCG:  Solving for p_rgh, Initial residual = 0.0491028, Final residual = 0.000490805, No Iterations 73
time step continuity errors : sum local = 1.84045e-06, global = 1.98109e-22, cumulative = -3.12512e-21
ExecutionTime = 1.57 s  ClockTime = 1 s

Time = 15

DILUPBiCGStab:  Solving for Ux, Initial residual = 0.170771, Final residual = 0.000689416, No Iterations 1
DILUPBiCGStab:  Solving for Uy, Initial residual = 0.064866, Final residual = 0.000376016, No Iterations 1
DILUPBiCGStab:  Solving for T, Initial residual = 0.00927911, Final residual = 9.34409e-05, No Iterations 1
DICPCG:  Solving for p_rgh, Initial residual = 0.0462012, Final residual = 0.000399671, No Iterations 88
time step continuity errors : sum local = 1.65028e-06, global = -2.01678e-21, cumulative = -5.1419e-21
ExecutionTime = 1.66 s  ClockTime = 1 s

Time = 16

DILUPBiCGStab:  Solving for Ux, Initial residual = 0.282509, Final residual = 0.00089265, No Iterations 1
DILUPBiCGStab:  Solving for Uy, Initial residual = 0.10838, Final residual = 0.000554394, No Iterations 1
DILUPBiCGStab:  Solving for T, Initial residual = 0.00861333, Final residual = 8.20005e-05, No Iterations 1
DICPCG:  Solving for p_rgh, Initial residual = 0.0429747, Final residual = 0.000423678, No Iterations 161
time step continuity errors : sum local = 1.46528e-06, global = -5.58646e-22, cumulative = -5.70055e-21
ExecutionTime = 1.79 s  ClockTime = 2 s

Time = 17

DILUPBiCGStab:  Solving for Ux, Initial residual = 0.269117, Final residual = 0.00102483, No Iterations 1
DILUPBiCGStab:  Solving for Uy, Initial residual = 0.107131, Final residual = 0.00044806, No Iterations 1
DILUPBiCGStab:  Solving for T, Initial residual = 0.00804055, Final residual = 7.22258e-05, No Iterations 1
DICPCG:  Solving for p_rgh, Initial residual = 0.0397565, Final residual = 0.000393149, No Iterations 73
time step continuity errors : sum local = 1.52165e-06, global = 1.29678e-21, cumulative = -4.40377e-21
ExecutionTime = 1.86 s  ClockTime = 2 s

Time = 18

DILUPBiCGStab:  Solving for Ux, Initial residual = 0.139969, Final residual = 0.000518208, No Iterations 1
DILUPBiCGStab:  Solving for Uy, Initial residual = 0.0591919, Final residual = 0.000274133, No Iterations 1
DILUPBiCGStab:  Solving for T, Initial residual = 0.0075426, Final residual = 6.38778e-05, No Iterations 1
DICPCG:  Solving for p_rgh, Initial residual = 0.0367635, Final residual = 0.000306935, No Iterations 88
time step continuity errors : sum local = 1.33852e-06, global = 1.60601e-21, cumulative = -2.79776e-21
ExecutionTime = 1.95 s  ClockTime = 2 s

Time = 19

DILUPBiCGStab:  Solving for Ux, Initial residual = 0.224728, Final residual = 0.000668642, No Iterations 1
DILUPBiCGStab:  Solving for Uy, Initial residual = 0.102636, Final residual = 0.000443089, No Iterations 1
DILUPBiCGStab:  Solving for T, Initial residual = 0.00710401, Final residual = 5.67245e-05, No Iterations 1
DICPCG:  Solving for p_rgh, Initial residual = 0.0340742, Final residual = 0.000287667, No Iterations 181
time step continuity errors : sum local = 1.01406e-06, global = -7.53993e-23, cumulative = -2.87315e-21
ExecutionTime = 2.08 s  ClockTime = 2 s

Time = 20

DILUPBiCGStab:  Solving for Ux, Initial residual = 0.196304, Final residual = 0.000751225, No Iterations 1
DILUPBiCGStab:  Solving for Uy, Initial residual = 0.0854206, Final residual = 0.000346336, No Iterations 1
DILUPBiCGStab:  Solving for T, Initial residual = 0.0067143, Final residual = 5.05824e-05, No Iterations 1
DICPCG:  Solving for p_rgh, Initial residual = 0.0328074, Final residual = 0.000235081, No Iterations 87
time step continuity errors : sum local = 9.69466e-07, global = 6.02376e-22, cumulative = -2.27078e-21
ExecutionTime = 2.17 s  ClockTime = 2 s

Time = 21

DILUPBiCGStab:  Solving for Ux, Initial residual = 0.0571812, Final residual = 0.000199508, No Iterations 1
DILUPBiCGStab:  Solving for Uy, Initial residual = 0.0381054, Final residual = 0.000156911, No Iterations 1
DILUPBiCGStab:  Solving for T, Initial residual = 0.00636594, Final residual = 4.53001e-05, No Iterations 1
DICPCG:  Solving for p_rgh, Initial residual = 0.03173, Final residual = 0.000310366, No Iterations 88
time step continuity errors : sum local = 1.34184e-06, global = 9.31645e-24, cumulative = -2.26146e-21
ExecutionTime = 2.26 s  ClockTime = 2 s

Time = 22

DILUPBiCGStab:  Solving for Ux, Initial residual = 0.177155, Final residual = 0.000597274, No Iterations 1
DILUPBiCGStab:  Solving for Uy, Initial residual = 0.0694751, Final residual = 0.000293675, No Iterations 1
DILUPBiCGStab:  Solving for T, Initial residual = 0.00605355, Final residual = 4.0749e-05, No Iterations 1
DICPCG:  Solving for p_rgh, Initial residual = 0.0307497, Final residual = 0.000294244, No Iterations 181
time step continuity errors : sum local = 1.04348e-06, global = 1.32347e-22, cumulative = -2.12911e-21
ExecutionTime = 2.39 s  ClockTime = 2 s

Time = 23

DILUPBiCGStab:  Solving for Ux, Initial residual = 0.199598, Final residual = 0.000658691, No Iterations 1
DILUPBiCGStab:  Solving for Uy, Initial residual = 0.0758797, Final residual = 0.000303813, No Iterations 1
DILUPBiCGStab:  Solving for T, Initial residual = 0.00577183, Final residual = 3.71762e-05, No Iterations 1
DICPCG:  Solving for p_rgh, Initial residual = 0.029553, Final residual = 0.000179085, No Iterations 87
time step continuity errors : sum local = 7.61871e-07, global = -1.34689e-21, cumulative = -3.47601e-21
ExecutionTime = 2.47 s  ClockTime = 2 s

Time = 24

DILUPBiCGStab:  Solving for Ux, Initial residual = 0.0467107, Final residual = 0.000147012, No Iterations 1
DILUPBiCGStab:  Solving for Uy, Initial residual = 0.0367007, Final residual = 0.000138448, No Iterations 1
DILUPBiCGStab:  Solving for T, Initial residual = 0.00551648, Final residual = 3.42528e-05, No Iterations 1
DICPCG:  Solving for p_rgh, Initial residual = 0.0283084, Final residual = 0.000245312, No Iterations 88
time step continuity errors : sum local = 1.09773e-06, global = -1.59454e-21, cumulative = -5.07054e-21
ExecutionTime = 2.56 s  ClockTime = 2 s

Time = 25

DILUPBiCGStab:  Solving for Ux, Initial residual = 0.158747, Final residual = 0.000522485, No Iterations 1
DILUPBiCGStab:  Solving for Uy, Initial residual = 0.0626325, Final residual = 0.000248521, No Iterations 1
DILUPBiCGStab:  Solving for T, Initial residual = 0.00528328, Final residual = 3.16106e-05, No Iterations 1
DICPCG:  Solving for p_rgh, Initial residual = 0.0273048, Final residual = 0.00025996, No Iterations 174
time step continuity errors : sum local = 9.19279e-07, global = 5.35108e-22, cumulative = -4.53543e-21
ExecutionTime = 2.69 s  ClockTime = 2 s

Time = 26

DILUPBiCGStab:  Solving for Ux, Initial residual = 0.154753, Final residual = 0.00050252, No Iterations 1
DILUPBiCGStab:  Solving for Uy, Initial residual = 0.0656061, Final residual = 0.000256168, No Iterations 1
DILUPBiCGStab:  Solving for T, Initial residual = 0.00506904, Final residual = 2.92187e-05, No Iterations 1
DICPCG:  Solving for p_rgh, Initial residual = 0.0264234, Final residual = 0.000157741, No Iterations 87
time step continuity errors : sum local = 6.74926e-07, global = 2.17704e-22, cumulative = -4.31773e-21
ExecutionTime = 2.77 s  ClockTime = 2 s

Time = 27

DILUPBiCGStab:  Solving for Ux, Initial residual = 0.0346211, Final residual = 9.83087e-05, No Iterations 1
DILUPBiCGStab:  Solving for Uy, Initial residual = 0.0335094, Final residual = 0.000117724, No Iterations 1
DILUPBiCGStab:  Solving for T, Initial residual = 0.00487149, Final residual = 2.70522e-05, No Iterations 1
DICPCG:  Solving for p_rgh, Initial residual = 0.0255823, Final residual = 0.000240002, No Iterations 88
time step continuity errors : sum local = 1.0601e-06, global = -7.0534e-22, cumulative = -5.02307e-21
ExecutionTime = 2.85 s  ClockTime = 3 s

Time = 28

DILUPBiCGStab:  Solving for Ux, Initial residual = 0.124797, Final residual = 0.000420788, No Iterations 1
DILUPBiCGStab:  Solving for Uy, Initial residual = 0.0564756, Final residual = 0.000211162, No Iterations 1
DILUPBiCGStab:  Solving for T, Initial residual = 0.00468948, Final residual = 2.50924e-05, No Iterations 1
DICPCG:  Solving for p_rgh, Initial residual = 0.0248843, Final residual = 0.000229431, No Iterations 166
time step continuity errors : sum local = 8.09949e-07, global = -2.42425e-22, cumulative = -5.26549e-21
ExecutionTime = 2.99 s  ClockTime = 3 s

Time = 29

DILUPBiCGStab:  Solving for Ux, Initial residual = 0.127167, Final residual = 0.000388837, No Iterations 1
DILUPBiCGStab:  Solving for Uy, Initial residual = 0.058338, Final residual = 0.0002228, No Iterations 1
DILUPBiCGStab:  Solving for T, Initial residual = 0.00452126, Final residual = 2.33179e-05, No Iterations 1
DICPCG:  Solving for p_rgh, Initial residual = 0.0239567, Final residual = 0.000141569, No Iterations 87
time step continuity errors : sum local = 6.15122e-07, global = 2.14079e-22, cumulative = -5.05142e-21
ExecutionTime = 3.07 s  ClockTime = 3 s

Time = 30

DILUPBiCGStab:  Solving for Ux, Initial residual = 0.0333009, Final residual = 8.68502e-05, No Iterations 1
DILUPBiCGStab:  Solving for Uy, Initial residual = 0.0337241, Final residual = 0.000110305, No Iterations 1
DILUPBiCGStab:  Solving for T, Initial residual = 0.00436532, Final residual = 2.1711e-05, No Iterations 1
DICPCG:  Solving for p_rgh, Initial residual = 0.0229837, Final residual = 0.000224098, No Iterations 185
time step continuity errors : sum local = 7.97837e-07, global = 3.90068e-22, cumulative = -4.66135e-21
ExecutionTime = 3.2 s  ClockTime = 3 s

Time = 31

DILUPBiCGStab:  Solving for Ux, Initial residual = 0.0573664, Final residual = 0.000159959, No Iterations 1
DILUPBiCGStab:  Solving for Uy, Initial residual = 0.0373564, Final residual = 0.000133384, No Iterations 1
DILUPBiCGStab:  Solving for T, Initial residual = 0.00422035, Final residual = 2.02532e-05, No Iterations 1
DICPCG:  Solving for p_rgh, Initial residual = 0.0222261, Final residual = 0.000216175, No Iterations 86
time step continuity errors : sum local = 8.95228e-07, global = -1.9561e-22, cumulative = -4.85696e-21
ExecutionTime = 3.29 s  ClockTime = 3 s

Time = 32

DILUPBiCGStab:  Solving for Ux, Initial residual = 0.0669184, Final residual = 0.000208447, No Iterations 1
DILUPBiCGStab:  Solving for Uy, Initial residual = 0.046035, Final residual = 0.000150734, No Iterations 1
DILUPBiCGStab:  Solving for T, Initial residual = 0.00408505, Final residual = 1.8926e-05, No Iterations 1
DICPCG:  Solving for p_rgh, Initial residual = 0.0214082, Final residual = 0.000201486, No Iterations 184
time step continuity errors : sum local = 7.224e-07, global = -2.26352e-22, cumulative = -5.08331e-21
ExecutionTime = 3.42 s  ClockTime = 3 s

Time = 33

DILUPBiCGStab:  Solving for Ux, Initial residual = 0.051059, Final residual = 0.000132924, No Iterations 1
DILUPBiCGStab:  Solving for Uy, Initial residual = 0.0376827, Final residual = 0.000124012, No Iterations 1
DILUPBiCGStab:  Solving for T, Initial residual = 0.00395806, Final residual = 1.7714e-05, No Iterations 1
DICPCG:  Solving for p_rgh, Initial residual = 0.0205644, Final residual = 0.000140366, No Iterations 87
time step continuity errors : sum local = 6.35168e-07, global = 9.11085e-23, cumulative = -4.9922e-21
ExecutionTime = 3.5 s  ClockTime = 3 s

Time = 34

DILUPBiCGStab:  Solving for Ux, Initial residual = 0.0520452, Final residual = 0.000162024, No Iterations 1
DILUPBiCGStab:  Solving for Uy, Initial residual = 0.0375163, Final residual = 0.000119575, No Iterations 1
DILUPBiCGStab:  Solving for T, Initial residual = 0.00383845, Final residual = 1.66766e-05, No Iterations 1
DICPCG:  Solving for p_rgh, Initial residual = 0.0200153, Final residual = 0.000194276, No Iterations 185
time step continuity errors : sum local = 6.98256e-07, global = -7.70065e-22, cumulative = -5.76227e-21
ExecutionTime = 3.64 s  ClockTime = 3 s

Time = 35

DILUPBiCGStab:  Solving for Ux, Initial residual = 0.0564184, Final residual = 0.000143309, No Iterations 1
DILUPBiCGStab:  Solving for Uy, Initial residual = 0.0383542, Final residual = 0.000125744, No Iterations 1
DILUPBiCGStab:  Solving for T, Initial residual = 0.00372621, Final residual = 1.57867e-05, No Iterations 1
DICPCG:  Solving for p_rgh, Initial residual = 0.0195243, Final residual = 0.000177377, No Iterations 86
time step continuity errors : sum local = 7.56171e-07, global = -1.00525e-21, cumulative = -6.76752e-21
ExecutionTime = 3.72 s  ClockTime = 3 s

Time = 36

DILUPBiCGStab:  Solving for Ux, Initial residual = 0.0429254, Final residual = 0.000120556, No Iterations 1
DILUPBiCGStab:  Solving for Uy, Initial residual = 0.0343079, Final residual = 0.000102283, No Iterations 1
DILUPBiCGStab:  Solving for T, Initial residual = 0.0036207, Final residual = 1.49576e-05, No Iterations 1
DICPCG:  Solving for p_rgh, Initial residual = 0.0190303, Final residual = 0.0001755, No Iterations 187
time step continuity errors : sum local = 6.32457e-07, global = 1.51966e-22, cumulative = -6.61555e-21
ExecutionTime = 3.86 s  ClockTime = 4 s

Time = 37

DILUPBiCGStab:  Solving for Ux, Initial residual = 0.0442106, Final residual = 0.000108006, No Iterations 1
DILUPBiCGStab:  Solving for Uy, Initial residual = 0.0336849, Final residual = 0.000106988, No Iterations 1
DILUPBiCGStab:  Solving for T, Initial residual = 0.00352132, Final residual = 1.41845e-05, No Iterations 1
DICPCG:  Solving for p_rgh, Initial residual = 0.0185258, Final residual = 0.000170356, No Iterations 86
time step continuity errors : sum local = 7.30262e-07, global = 3.1366e-22, cumulative = -6.30189e-21
ExecutionTime = 3.94 s  ClockTime = 4 s

Time = 38

DILUPBiCGStab:  Solving for Ux, Initial residual = 0.0427314, Final residual = 0.000119738, No Iterations 1
DILUPBiCGStab:  Solving for Uy, Initial residual = 0.0328657, Final residual = 9.57817e-05, No Iterations 1
DILUPBiCGStab:  Solving for T, Initial residual = 0.00342756, Final residual = 1.34633e-05, No Iterations 1
DICPCG:  Solving for p_rgh, Initial residual = 0.0180092, Final residual = 0.000168249, No Iterations 187
time step continuity errors : sum local = 6.06108e-07, global = -7.49257e-22, cumulative = -7.05115e-21
ExecutionTime = 4.07 s  ClockTime = 4 s

Time = 39

DILUPBiCGStab:  Solving for Ux, Initial residual = 0.0422509, Final residual = 9.86972e-05, No Iterations 1
DILUPBiCGStab:  Solving for Uy, Initial residual = 0.0323974, Final residual = 9.92493e-05, No Iterations 1
DILUPBiCGStab:  Solving for T, Initial residual = 0.00333896, Final residual = 1.279e-05, No Iterations 1
DICPCG:  Solving for p_rgh, Initial residual = 0.0174922, Final residual = 0.000153008, No Iterations 86
time step continuity errors : sum local = 6.64519e-07, global = 1.01725e-21, cumulative = -6.0339e-21
ExecutionTime = 4.15 s  ClockTime = 4 s

Time = 40

DILUPBiCGStab:  Solving for Ux, Initial residual = 0.0379745, Final residual = 0.000102677, No Iterations 1
DILUPBiCGStab:  Solving for Uy, Initial residual = 0.0307317, Final residual = 8.61637e-05, No Iterations 1
DILUPBiCGStab:  Solving for T, Initial residual = 0.00325509, Final residual = 1.21619e-05, No Iterations 1
DICPCG:  Solving for p_rgh, Initial residual = 0.0170253, Final residual = 0.000164989, No Iterations 187
time step continuity errors : sum local = 5.934e-07, global = -7.14758e-22, cumulative = -6.74866e-21
ExecutionTime = 4.29 s  ClockTime = 4 s

Time = 41

DILUPBiCGStab:  Solving for Ux, Initial residual = 0.0388941, Final residual = 8.80178e-05, No Iterations 1
DILUPBiCGStab:  Solving for Uy, Initial residual = 0.0306632, Final residual = 9.15982e-05, No Iterations 1
DILUPBiCGStab:  Solving for T, Initial residual = 0.00317518, Final residual = 1.1574e-05, No Iterations 1
DICPCG:  Solving for p_rgh, Initial residual = 0.0165529, Final residual = 0.000140979, No Iterations 86
time step continuity errors : sum local = 6.16362e-07, global = -4.88422e-22, cumulative = -7.23708e-21
ExecutionTime = 4.38 s  ClockTime = 4 s

Time = 42

DILUPBiCGStab:  Solving for Ux, Initial residual = 0.035159, Final residual = 9.14204e-05, No Iterations 1
DILUPBiCGStab:  Solving for Uy, Initial residual = 0.0288531, Final residual = 7.80434e-05, No Iterations 1
DILUPBiCGStab:  Solving for T, Initial residual = 0.00309896, Final residual = 1.10229e-05, No Iterations 1
DICPCG:  Solving for p_rgh, Initial residual = 0.0161412, Final residual = 0.000145734, No Iterations 188
time step continuity errors : sum local = 5.23228e-07, global = 4.04185e-22, cumulative = -6.83289e-21
ExecutionTime = 4.52 s  ClockTime = 4 s

Time = 43

DILUPBiCGStab:  Solving for Ux, Initial residual = 0.035432, Final residual = 7.78559e-05, No Iterations 1
DILUPBiCGStab:  Solving for Uy, Initial residual = 0.0289211, Final residual = 8.40776e-05, No Iterations 1
DILUPBiCGStab:  Solving for T, Initial residual = 0.00302637, Final residual = 1.05067e-05, No Iterations 1
DICPCG:  Solving for p_rgh, Initial residual = 0.0158169, Final residual = 0.000132169, No Iterations 86
time step continuity errors : sum local = 5.81676e-07, global = -9.63672e-23, cumulative = -6.92926e-21
ExecutionTime = 4.6 s  ClockTime = 4 s

Time = 44

DILUPBiCGStab:  Solving for Ux, Initial residual = 0.0326917, Final residual = 8.26694e-05, No Iterations 1
DILUPBiCGStab:  Solving for Uy, Initial residual = 0.0272836, Final residual = 7.15522e-05, No Iterations 1
DILUPBiCGStab:  Solving for T, Initial residual = 0.00295729, Final residual = 1.00232e-05, No Iterations 1
DICPCG:  Solving for p_rgh, Initial residual = 0.0154539, Final residual = 0.000142836, No Iterations 188
time step continuity errors : sum local = 5.13598e-07, global = -1.13269e-22, cumulative = -7.04253e-21
ExecutionTime = 4.73 s  ClockTime = 4 s

Time = 45

DILUPBiCGStab:  Solving for Ux, Initial residual = 0.0329784, Final residual = 6.96539e-05, No Iterations 1
DILUPBiCGStab:  Solving for Uy, Initial residual = 0.0273611, Final residual = 7.72343e-05, No Iterations 1
DILUPBiCGStab:  Solving for T, Initial residual = 0.00289148, Final residual = 9.57012e-06, No Iterations 1
DICPCG:  Solving for p_rgh, Initial residual = 0.0150677, Final residual = 0.000123162, No Iterations 86
time step continuity errors : sum local = 5.48713e-07, global = -1.57709e-22, cumulative = -7.20024e-21
ExecutionTime = 4.81 s  ClockTime = 5 s

Time = 46

DILUPBiCGStab:  Solving for Ux, Initial residual = 0.0303035, Final residual = 7.43411e-05, No Iterations 1
DILUPBiCGStab:  Solving for Uy, Initial residual = 0.0257512, Final residual = 6.54351e-05, No Iterations 1
DILUPBiCGStab:  Solving for T, Initial residual = 0.0028287, Final residual = 9.14509e-06, No Iterations 1
DICPCG:  Solving for p_rgh, Initial residual = 0.014704, Final residual = 0.000141006, No Iterations 188
time step continuity errors : sum local = 5.0967e-07, global = -7.01159e-23, cumulative = -7.27035e-21
ExecutionTime = 4.95 s  ClockTime = 5 s

Time = 47

DILUPBiCGStab:  Solving for Ux, Initial residual = 0.0306034, Final residual = 6.26061e-05, No Iterations 1
DILUPBiCGStab:  Solving for Uy, Initial residual = 0.0259684, Final residual = 7.12718e-05, No Iterations 1
DILUPBiCGStab:  Solving for T, Initial residual = 0.00276876, Final residual = 8.74615e-06, No Iterations 1
DICPCG:  Solving for p_rgh, Initial residual = 0.0143389, Final residual = 0.000115476, No Iterations 86
time step continuity errors : sum local = 5.20539e-07, global = -1.42396e-22, cumulative = -7.41275e-21
ExecutionTime = 5.03 s  ClockTime = 5 s

Time = 48

DILUPBiCGStab:  Solving for Ux, Initial residual = 0.0283195, Final residual = 6.74266e-05, No Iterations 1
DILUPBiCGStab:  Solving for Uy, Initial residual = 0.0243864, Final residual = 6.00445e-05, No Iterations 1
DILUPBiCGStab:  Solving for T, Initial residual = 0.00271146, Final residual = 8.39732e-06, No Iterations 1
DICPCG:  Solving for p_rgh, Initial residual = 0.0139876, Final residual = 0.000138394, No Iterations 188
time step continuity errors : sum local = 5.022e-07, global = -7.71907e-24, cumulative = -7.42047e-21
ExecutionTime = 5.18 s  ClockTime = 5 s

Time = 49

DILUPBiCGStab:  Solving for Ux, Initial residual = 0.0285265, Final residual = 5.65958e-05, No Iterations 1
DILUPBiCGStab:  Solving for Uy, Initial residual = 0.0246787, Final residual = 6.58686e-05, No Iterations 1
DILUPBiCGStab:  Solving for T, Initial residual = 0.00265663, Final residual = 8.08065e-06, No Iterations 1
DICPCG:  Solving for p_rgh, Initial residual = 0.0136444, Final residual = 0.000112215, No Iterations 86
time step continuity errors : sum local = 5.07804e-07, global = -8.27498e-22, cumulative = -8.24797e-21
ExecutionTime = 5.26 s  ClockTime = 5 s

Time = 50

DILUPBiCGStab:  Solving for Ux, Initial residual = 0.0265234, Final residual = 6.1331e-05, No Iterations 1
DILUPBiCGStab:  Solving for Uy, Initial residual = 0.02316, Final residual = 5.53347e-05, No Iterations 1
DILUPBiCGStab:  Solving for T, Initial residual = 0.00260402, Final residual = 7.77928e-06, No Iterations 1
DICPCG:  Solving for p_rgh, Initial residual = 0.0133101, Final residual = 0.000121375, No Iterations 189
time step continuity errors : sum local = 4.42119e-07, global = 5.39044e-22, cumulative = -7.70892e-21
ExecutionTime = 5.4 s  ClockTime = 5 s

Time = 51

DILUPBiCGStab:  Solving for Ux, Initial residual = 0.0266479, Final residual = 5.17256e-05, No Iterations 1
DILUPBiCGStab:  Solving for Uy, Initial residual = 0.023515, Final residual = 6.12909e-05, No Iterations 1
DILUPBiCGStab:  Solving for T, Initial residual = 0.00255336, Final residual = 7.4924e-06, No Iterations 1
DICPCG:  Solving for p_rgh, Initial residual = 0.0129953, Final residual = 0.000104471, No Iterations 86
time step continuity errors : sum local = 4.78461e-07, global = 3.6582e-22, cumulative = -7.3431e-21
ExecutionTime = 5.49 s  ClockTime = 5 s

Time = 52

DILUPBiCGStab:  Solving for Ux, Initial residual = 0.0248649, Final residual = 5.58609e-05, No Iterations 1
DILUPBiCGStab:  Solving for Uy, Initial residual = 0.0219872, Final residual = 5.10011e-05, No Iterations 1
DILUPBiCGStab:  Solving for T, Initial residual = 0.00250448, Final residual = 7.21913e-06, No Iterations 1
DICPCG:  Solving for p_rgh, Initial residual = 0.0127524, Final residual = 0.000119788, No Iterations 189
time step continuity errors : sum local = 4.37105e-07, global = -4.26028e-22, cumulative = -7.76913e-21
ExecutionTime = 5.63 s  ClockTime = 5 s

Time = 53

DILUPBiCGStab:  Solving for Ux, Initial residual = 0.0250214, Final residual = 4.68655e-05, No Iterations 1
DILUPBiCGStab:  Solving for Uy, Initial residual = 0.0223749, Final residual = 5.66752e-05, No Iterations 1
DILUPBiCGStab:  Solving for T, Initial residual = 0.00245755, Final residual = 6.95908e-06, No Iterations 1
DICPCG:  Solving for p_rgh, Initial residual = 0.0125549, Final residual = 0.000105892, No Iterations 86
time step continuity errors : sum local = 4.82124e-07, global = 4.59893e-22, cumulative = -7.30924e-21
ExecutionTime = 5.72 s  ClockTime = 5 s

Time = 54

DILUPBiCGStab:  Solving for Ux, Initial residual = 0.0234197, Final residual = 5.12138e-05, No Iterations 1
DILUPBiCGStab:  Solving for Uy, Initial residual = 0.0209628, Final residual = 4.7298e-05, No Iterations 1
DILUPBiCGStab:  Solving for T, Initial residual = 0.00241245, Final residual = 6.71152e-06, No Iterations 1
DICPCG:  Solving for p_rgh, Initial residual = 0.0123668, Final residual = 0.000118635, No Iterations 189
time step continuity errors : sum local = 4.33278e-07, global = 5.65819e-22, cumulative = -6.74342e-21
ExecutionTime = 5.86 s  ClockTime = 6 s

Time = 55

DILUPBiCGStab:  Solving for Ux, Initial residual = 0.0235359, Final residual = 4.28206e-05, No Iterations 1
DILUPBiCGStab:  Solving for Uy, Initial residual = 0.0213622, Final residual = 5.27315e-05, No Iterations 1
DILUPBiCGStab:  Solving for T, Initial residual = 0.00236908, Final residual = 6.47577e-06, No Iterations 1
DICPCG:  Solving for p_rgh, Initial residual = 0.0121633, Final residual = 0.000101085, No Iterations 86
time step continuity errors : sum local = 4.63026e-07, global = -1.18971e-21, cumulative = -7.93313e-21
ExecutionTime = 5.94 s  ClockTime = 6 s

Time = 56

DILUPBiCGStab:  Solving for Ux, Initial residual = 0.0221339, Final residual = 4.71192e-05, No Iterations 1
DILUPBiCGStab:  Solving for Uy, Initial residual = 0.0199759, Final residual = 4.38476e-05, No Iterations 1
DILUPBiCGStab:  Solving for T, Initial residual = 0.00232734, Final residual = 6.25123e-06, No Iterations 1
DICPCG:  Solving for p_rgh, Initial residual = 0.0119718, Final residual = 0.000118128, No Iterations 189
time step continuity errors : sum local = 4.31457e-07, global = -2.86676e-22, cumulative = -8.21981e-21
ExecutionTime = 6.08 s  ClockTime = 6 s

Time = 57

DILUPBiCGStab:  Solving for Ux, Initial residual = 0.0222156, Final residual = 3.93465e-05, No Iterations 1
DILUPBiCGStab:  Solving for Uy, Initial residual = 0.0204161, Final residual = 4.91674e-05, No Iterations 1
DILUPBiCGStab:  Solving for T, Initial residual = 0.00228714, Final residual = 6.03729e-06, No Iterations 1
DICPCG:  Solving for p_rgh, Initial residual = 0.011775, Final residual = 9.92445e-05, No Iterations 86
time step continuity errors : sum local = 4.54483e-07, global = -9.12801e-22, cumulative = -9.13261e-21
ExecutionTime = 6.17 s  ClockTime = 6 s

Time = 58

DILUPBiCGStab:  Solving for Ux, Initial residual = 0.0209493, Final residual = 4.34228e-05, No Iterations 1
DILUPBiCGStab:  Solving for Uy, Initial residual = 0.0190792, Final residual = 4.0772e-05, No Iterations 1
DILUPBiCGStab:  Solving for T, Initial residual = 0.0022484, Final residual = 5.83337e-06, No Iterations 1
DICPCG:  Solving for p_rgh, Initial residual = 0.0115838, Final residual = 0.000109952, No Iterations 190
time step continuity errors : sum local = 4.0161e-07, global = -5.62705e-22, cumulative = -9.69531e-21
ExecutionTime = 6.31 s  ClockTime = 6 s

Time = 59

DILUPBiCGStab:  Solving for Ux, Initial residual = 0.0209923, Final residual = 3.65639e-05, No Iterations 1
DILUPBiCGStab:  Solving for Uy, Initial residual = 0.019562, Final residual = 4.60717e-05, No Iterations 1
DILUPBiCGStab:  Solving for T, Initial residual = 0.00221103, Final residual = 5.6389e-06, No Iterations 1
DICPCG:  Solving for p_rgh, Initial residual = 0.0114006, Final residual = 0.000103083, No Iterations 86
time step continuity errors : sum local = 4.66426e-07, global = -4.34789e-22, cumulative = -1.01301e-20
ExecutionTime = 6.39 s  ClockTime = 6 s

Time = 60

DILUPBiCGStab:  Solving for Ux, Initial residual = 0.0198342, Final residual = 4.00476e-05, No Iterations 1
DILUPBiCGStab:  Solving for Uy, Initial residual = 0.0182163, Final residual = 3.78952e-05, No Iterations 1
DILUPBiCGStab:  Solving for T, Initial residual = 0.00217497, Final residual = 5.45336e-06, No Iterations 1
DICPCG:  Solving for p_rgh, Initial residual = 0.0112081, Final residual = 0.000110515, No Iterations 190
time step continuity errors : sum local = 4.0322e-07, global = 4.5381e-22, cumulative = -9.67629e-21
ExecutionTime = 6.53 s  ClockTime = 6 s

Time = 61

DILUPBiCGStab:  Solving for Ux, Initial residual = 0.019912, Final residual = 3.3547e-05, No Iterations 1
DILUPBiCGStab:  Solving for Uy, Initial residual = 0.0187389, Final residual = 4.29533e-05, No Iterations 1
DILUPBiCGStab:  Solving for T, Initial residual = 0.00214005, Final residual = 5.27603e-06, No Iterations 1
DICPCG:  Solving for p_rgh, Initial residual = 0.0110085, Final residual = 0.00010023, No Iterations 86
time step continuity errors : sum local = 4.53952e-07, global = 2.59743e-22, cumulative = -9.41655e-21
ExecutionTime = 6.61 s  ClockTime = 6 s

Time = 62

DILUPBiCGStab:  Solving for Ux, Initial residual = 0.0188564, Final residual = 3.71588e-05, No Iterations 1
DILUPBiCGStab:  Solving for Uy, Initial residual = 0.0174408, Final residual = 3.53992e-05, No Iterations 1
DILUPBiCGStab:  Solving for T, Initial residual = 0.00210615, Final residual = 5.10634e-06, No Iterations 1
DICPCG:  Solving for p_rgh, Initial residual = 0.0108301, Final residual = 0.000101604, No Iterations 192
time step continuity errors : sum local = 3.70322e-07, global = -1.00613e-21, cumulative = -1.04227e-20
ExecutionTime = 6.75 s  ClockTime = 6 s

Time = 63

DILUPBiCGStab:  Solving for Ux, Initial residual = 0.0189286, Final residual = 3.11591e-05, No Iterations 1
DILUPBiCGStab:  Solving for Uy, Initial residual = 0.0180428, Final residual = 4.03979e-05, No Iterations 1
DILUPBiCGStab:  Solving for T, Initial residual = 0.00207323, Final residual = 4.94429e-06, No Iterations 1
DICPCG:  Solving for p_rgh, Initial residual = 0.0106908, Final residual = 9.86754e-05, No Iterations 86
time step continuity errors : sum local = 4.46408e-07, global = 1.29667e-21, cumulative = -9.12601e-21
ExecutionTime = 6.83 s  ClockTime = 7 s

Time = 64

DILUPBiCGStab:  Solving for Ux, Initial residual = 0.0178765, Final residual = 3.44054e-05, No Iterations 1
DILUPBiCGStab:  Solving for Uy, Initial residual = 0.0166535, Final residual = 3.29981e-05, No Iterations 1
DILUPBiCGStab:  Solving for T, Initial residual = 0.00204139, Final residual = 4.78978e-06, No Iterations 1
DICPCG:  Solving for p_rgh, Initial residual = 0.0105293, Final residual = 0.000102306, No Iterations 192
time step continuity errors : sum local = 3.73132e-07, global = 1.24654e-22, cumulative = -9.00136e-21
ExecutionTime = 6.98 s  ClockTime = 7 s

Time = 65

DILUPBiCGStab:  Solving for Ux, Initial residual = 0.0179686, Final residual = 2.87889e-05, No Iterations 1
DILUPBiCGStab:  Solving for Uy, Initial residual = 0.0172686, Final residual = 3.77311e-05, No Iterations 1
DILUPBiCGStab:  Solving for T, Initial residual = 0.00201058, Final residual = 4.65468e-06, No Iterations 1
DICPCG:  Solving for p_rgh, Initial residual = 0.0103536, Final residual = 0.000102597, No Iterations 86
time step continuity errors : sum local = 4.60093e-07, global = 7.23533e-24, cumulative = -8.99412e-21
ExecutionTime = 7.07 s  ClockTime = 7 s

Time = 66

DILUPBiCGStab:  Solving for Ux, Initial residual = 0.0170786, Final residual = 3.21191e-05, No Iterations 1
DILUPBiCGStab:  Solving for Uy, Initial residual = 0.016022, Final residual = 3.10182e-05, No Iterations 1
DILUPBiCGStab:  Solving for T, Initial residual = 0.00198074, Final residual = 4.52511e-06, No Iterations 1
DICPCG:  Solving for p_rgh, Initial residual = 0.0102151, Final residual = 8.97657e-05, No Iterations 193
time step continuity errors : sum local = 3.28652e-07, global = 2.48513e-22, cumulative = -8.74561e-21
ExecutionTime = 7.22 s  ClockTime = 7 s

Time = 67

DILUPBiCGStab:  Solving for Ux, Initial residual = 0.017172, Final residual = 2.70631e-05, No Iterations 1
DILUPBiCGStab:  Solving for Uy, Initial residual = 0.0166372, Final residual = 3.55459e-05, No Iterations 1
DILUPBiCGStab:  Solving for T, Initial residual = 0.00195184, Final residual = 4.40033e-06, No Iterations 1
DICPCG:  Solving for p_rgh, Initial residual = 0.010042, Final residual = 9.89606e-05, No Iterations 192
time step continuity errors : sum local = 3.62274e-07, global = 1.83379e-22, cumulative = -8.56223e-21
ExecutionTime = 7.36 s  ClockTime = 7 s

Time = 68

DILUPBiCGStab:  Solving for Ux, Initial residual = 0.0141404, Final residual = 2.00808e-05, No Iterations 1
DILUPBiCGStab:  Solving for Uy, Initial residual = 0.0140592, Final residual = 2.75895e-05, No Iterations 1
DILUPBiCGStab:  Solving for T, Initial residual = 0.00192383, Final residual = 4.28016e-06, No Iterations 1
DICPCG:  Solving for p_rgh, Initial residual = 0.00989424, Final residual = 9.6763e-05, No Iterations 85
time step continuity errors : sum local = 4.24012e-07, global = 5.1135e-22, cumulative = -8.05088e-21
ExecutionTime = 7.44 s  ClockTime = 7 s

Time = 69

DILUPBiCGStab:  Solving for Ux, Initial residual = 0.0190618, Final residual = 4.06738e-05, No Iterations 1
DILUPBiCGStab:  Solving for Uy, Initial residual = 0.0184502, Final residual = 3.68187e-05, No Iterations 1
DILUPBiCGStab:  Solving for T, Initial residual = 0.00189666, Final residual = 4.16439e-06, No Iterations 1
DICPCG:  Solving for p_rgh, Initial residual = 0.00976147, Final residual = 9.49057e-05, No Iterations 193
time step continuity errors : sum local = 3.48662e-07, global = 4.35207e-22, cumulative = -7.61568e-21
ExecutionTime = 7.58 s  ClockTime = 7 s

Time = 70

DILUPBiCGStab:  Solving for Ux, Initial residual = 0.014094, Final residual = 1.9329e-05, No Iterations 1
DILUPBiCGStab:  Solving for Uy, Initial residual = 0.0142605, Final residual = 2.68498e-05, No Iterations 1
DILUPBiCGStab:  Solving for T, Initial residual = 0.00187031, Final residual = 4.05285e-06, No Iterations 1
DICPCG:  Solving for p_rgh, Initial residual = 0.00957344, Final residual = 8.67516e-05, No Iterations 193
time step continuity errors : sum local = 3.18943e-07, global = -1.15061e-21, cumulative = -8.76629e-21
ExecutionTime = 7.73 s  ClockTime = 7 s

Time = 71

DILUPBiCGStab:  Solving for Ux, Initial residual = 0.0138511, Final residual = 1.84506e-05, No Iterations 1
DILUPBiCGStab:  Solving for Uy, Initial residual = 0.0139635, Final residual = 2.58311e-05, No Iterations 1
DILUPBiCGStab:  Solving for T, Initial residual = 0.00184473, Final residual = 3.94534e-06, No Iterations 1
DICPCG:  Solving for p_rgh, Initial residual = 0.00944462, Final residual = 9.23619e-05, No Iterations 86
time step continuity errors : sum local = 4.10199e-07, global = -1.0213e-21, cumulative = -9.78759e-21
ExecutionTime = 7.81 s  ClockTime = 8 s

Time = 72

DILUPBiCGStab:  Solving for Ux, Initial residual = 0.0174348, Final residual = 3.64227e-05, No Iterations 1
DILUPBiCGStab:  Solving for Uy, Initial residual = 0.0169237, Final residual = 3.29417e-05, No Iterations 1
DILUPBiCGStab:  Solving for T, Initial residual = 0.00181988, Final residual = 3.84175e-06, No Iterations 1
DICPCG:  Solving for p_rgh, Initial residual = 0.00930768, Final residual = 8.97469e-05, No Iterations 194
time step continuity errors : sum local = 3.30641e-07, global = 3.62947e-22, cumulative = -9.42464e-21
ExecutionTime = 7.95 s  ClockTime = 8 s

Time = 73

DILUPBiCGStab:  Solving for Ux, Initial residual = 0.0136392, Final residual = 1.85036e-05, No Iterations 1
DILUPBiCGStab:  Solving for Uy, Initial residual = 0.0137402, Final residual = 2.54685e-05, No Iterations 1
DILUPBiCGStab:  Solving for T, Initial residual = 0.0017957, Final residual = 3.74176e-06, No Iterations 1
DICPCG:  Solving for p_rgh, Initial residual = 0.00913453, Final residual = 8.76696e-05, No Iterations 193
time step continuity errors : sum local = 3.22889e-07, global = -4.06428e-22, cumulative = -9.83107e-21
ExecutionTime = 8.09 s  ClockTime = 8 s

Time = 74

DILUPBiCGStab:  Solving for Ux, Initial residual = 0.0130454, Final residual = 1.69848e-05, No Iterations 1
DILUPBiCGStab:  Solving for Uy, Initial residual = 0.0132091, Final residual = 2.38579e-05, No Iterations 1
DILUPBiCGStab:  Solving for T, Initial residual = 0.00177209, Final residual = 3.64515e-06, No Iterations 1
DICPCG:  Solving for p_rgh, Initial residual = 0.00899199, Final residual = 8.31849e-05, No Iterations 87
time step continuity errors : sum local = 3.74882e-07, global = 9.86308e-23, cumulative = -9.73244e-21
ExecutionTime = 8.18 s  ClockTime = 8 s

Time = 75

DILUPBiCGStab:  Solving for Ux, Initial residual = 0.0163274, Final residual = 3.29018e-05, No Iterations 1
DILUPBiCGStab:  Solving for Uy, Initial residual = 0.0159158, Final residual = 2.99224e-05, No Iterations 1
DILUPBiCGStab:  Solving for T, Initial residual = 0.00174902, Final residual = 3.55192e-06, No Iterations 1
DICPCG:  Solving for p_rgh, Initial residual = 0.00890111, Final residual = 7.87724e-05, No Iterations 196
time step continuity errors : sum local = 2.90858e-07, global = 5.54641e-23, cumulative = -9.67698e-21
ExecutionTime = 8.32 s  ClockTime = 8 s

Time = 76

DILUPBiCGStab:  Solving for Ux, Initial residual = 0.0129465, Final residual = 1.67329e-05, No Iterations 1
DILUPBiCGStab:  Solving for Uy, Initial residual = 0.0130076, Final residual = 2.32052e-05, No Iterations 1
DILUPBiCGStab:  Solving for T, Initial residual = 0.00172659, Final residual = 3.46202e-06, No Iterations 1
DICPCG:  Solving for p_rgh, Initial residual = 0.00877244, Final residual = 8.35005e-05, No Iterations 194
time step continuity errors : sum local = 3.07925e-07, global = -1.67581e-21, cumulative = -1.13528e-20
ExecutionTime = 8.46 s  ClockTime = 8 s

Time = 77

DILUPBiCGStab:  Solving for Ux, Initial residual = 0.012426, Final residual = 1.56342e-05, No Iterations 1
DILUPBiCGStab:  Solving for Uy, Initial residual = 0.0125547, Final residual = 2.19757e-05, No Iterations 1
DILUPBiCGStab:  Solving for T, Initial residual = 0.00170475, Final residual = 3.37529e-06, No Iterations 1
DICPCG:  Solving for p_rgh, Initial residual = 0.00867716, Final residual = 8.59099e-05, No Iterations 87
time step continuity errors : sum local = 3.83977e-07, global = 2.32786e-22, cumulative = -1.112e-20
ExecutionTime = 8.55 s  ClockTime = 8 s

Time = 78

DILUPBiCGStab:  Solving for Ux, Initial residual = 0.0153795, Final residual = 3.01742e-05, No Iterations 1
DILUPBiCGStab:  Solving for Uy, Initial residual = 0.0150084, Final residual = 2.74054e-05, No Iterations 1
DILUPBiCGStab:  Solving for T, Initial residual = 0.00168351, Final residual = 3.29159e-06, No Iterations 1
DICPCG:  Solving for p_rgh, Initial residual = 0.00857689, Final residual = 7.92513e-05, No Iterations 196
time step continuity errors : sum local = 2.92767e-07, global = 7.59659e-22, cumulative = -1.03603e-20
ExecutionTime = 8.69 s  ClockTime = 8 s

Time = 79

DILUPBiCGStab:  Solving for Ux, Initial residual = 0.0122726, Final residual = 1.54061e-05, No Iterations 1
DILUPBiCGStab:  Solving for Uy, Initial residual = 0.0124288, Final residual = 2.15577e-05, No Iterations 1
DILUPBiCGStab:  Solving for T, Initial residual = 0.00166282, Final residual = 3.21079e-06, No Iterations 1
DICPCG:  Solving for p_rgh, Initial residual = 0.00844725, Final residual = 7.94717e-05, No Iterations 196
time step continuity errors : sum local = 2.93072e-07, global = 1.1571e-21, cumulative = -9.20324e-21
ExecutionTime = 8.83 s  ClockTime = 9 s

Time = 80

DILUPBiCGStab:  Solving for Ux, Initial residual = 0.011876, Final residual = 1.43819e-05, No Iterations 1
DILUPBiCGStab:  Solving for Uy, Initial residual = 0.0120218, Final residual = 2.02949e-05, No Iterations 1
DILUPBiCGStab:  Solving for T, Initial residual = 0.00164268, Final residual = 3.13277e-06, No Iterations 1
DICPCG:  Solving for p_rgh, Initial residual = 0.00836215, Final residual = 8.23863e-05, No Iterations 87
time step continuity errors : sum local = 3.69471e-07, global = -1.15406e-21, cumulative = -1.03573e-20
ExecutionTime = 8.91 s  ClockTime = 9 s

Time = 81

DILUPBiCGStab:  Solving for Ux, Initial residual = 0.0145251, Final residual = 2.76014e-05, No Iterations 1
DILUPBiCGStab:  Solving for Uy, Initial residual = 0.0141561, Final residual = 2.51518e-05, No Iterations 1
DILUPBiCGStab:  Solving for T, Initial residual = 0.00162305, Final residual = 3.05742e-06, No Iterations 1
DICPCG:  Solving for p_rgh, Initial residual = 0.0082565, Final residual = 7.9269e-05, No Iterations 196
time step continuity errors : sum local = 2.92743e-07, global = -3.62779e-22, cumulative = -1.07201e-20
ExecutionTime = 9.05 s  ClockTime = 9 s

Time = 82

DILUPBiCGStab:  Solving for Ux, Initial residual = 0.0115987, Final residual = 1.40364e-05, No Iterations 1
DILUPBiCGStab:  Solving for Uy, Initial residual = 0.0118312, Final residual = 1.98201e-05, No Iterations 1
DILUPBiCGStab:  Solving for T, Initial residual = 0.00160392, Final residual = 2.98464e-06, No Iterations 1
DICPCG:  Solving for p_rgh, Initial residual = 0.00811846, Final residual = 8.02632e-05, No Iterations 196
time step continuity errors : sum local = 2.95793e-07, global = -1.9388e-21, cumulative = -1.26589e-20
ExecutionTime = 9.2 s  ClockTime = 9 s

Time = 83

DILUPBiCGStab:  Solving for Ux, Initial residual = 0.0113391, Final residual = 1.32921e-05, No Iterations 1
DILUPBiCGStab:  Solving for Uy, Initial residual = 0.0114954, Final residual = 1.87741e-05, No Iterations 1
DILUPBiCGStab:  Solving for T, Initial residual = 0.00158526, Final residual = 2.91433e-06, No Iterations 1
DICPCG:  Solving for p_rgh, Initial residual = 0.00804273, Final residual = 7.17832e-05, No Iterations 87
time step continuity errors : sum local = 3.29245e-07, global = -6.3116e-22, cumulative = -1.329e-20
ExecutionTime = 9.28 s  ClockTime = 9 s

Time = 84

DILUPBiCGStab:  Solving for Ux, Initial residual = 0.0137521, Final residual = 2.54512e-05, No Iterations 1
DILUPBiCGStab:  Solving for Uy, Initial residual = 0.0134295, Final residual = 2.32089e-05, No Iterations 1
DILUPBiCGStab:  Solving for T, Initial residual = 0.00156707, Final residual = 2.849e-06, No Iterations 1
DICPCG:  Solving for p_rgh, Initial residual = 0.00793913, Final residual = 7.93626e-05, No Iterations 196
time step continuity errors : sum local = 2.92823e-07, global = 6.73313e-22, cumulative = -1.26167e-20
ExecutionTime = 9.42 s  ClockTime = 9 s

Time = 85

DILUPBiCGStab:  Solving for Ux, Initial residual = 0.0110783, Final residual = 1.30298e-05, No Iterations 1
DILUPBiCGStab:  Solving for Uy, Initial residual = 0.0113268, Final residual = 1.84307e-05, No Iterations 1
DILUPBiCGStab:  Solving for T, Initial residual = 0.00154932, Final residual = 2.78823e-06, No Iterations 1
DICPCG:  Solving for p_rgh, Initial residual = 0.00781519, Final residual = 7.59877e-05, No Iterations 216
time step continuity errors : sum local = 2.78154e-07, global = -1.08796e-21, cumulative = -1.37047e-20
ExecutionTime = 9.57 s  ClockTime = 9 s

Time = 86

DILUPBiCGStab:  Solving for Ux, Initial residual = 0.0117106, Final residual = 1.32107e-05, No Iterations 1
DILUPBiCGStab:  Solving for Uy, Initial residual = 0.0112576, Final residual = 1.77106e-05, No Iterations 1
DILUPBiCGStab:  Solving for T, Initial residual = 0.001532, Final residual = 2.72924e-06, No Iterations 1
DICPCG:  Solving for p_rgh, Initial residual = 0.00774108, Final residual = 6.97312e-05, No Iterations 87
time step continuity errors : sum local = 3.18024e-07, global = -4.79222e-22, cumulative = -1.41839e-20
ExecutionTime = 9.66 s  ClockTime = 9 s

Time = 87

DILUPBiCGStab:  Solving for Ux, Initial residual = 0.0137213, Final residual = 2.36649e-05, No Iterations 1
DILUPBiCGStab:  Solving for Uy, Initial residual = 0.0128318, Final residual = 2.12423e-05, No Iterations 1
DILUPBiCGStab:  Solving for T, Initial residual = 0.00151501, Final residual = 2.67185e-06, No Iterations 1
DICPCG:  Solving for p_rgh, Initial residual = 0.00763832, Final residual = 7.43192e-05, No Iterations 215
time step continuity errors : sum local = 2.72386e-07, global = -5.05852e-22, cumulative = -1.46898e-20
ExecutionTime = 9.81 s  ClockTime = 10 s

Time = 88

DILUPBiCGStab:  Solving for Ux, Initial residual = 0.0107305, Final residual = 1.22708e-05, No Iterations 1
DILUPBiCGStab:  Solving for Uy, Initial residual = 0.0108212, Final residual = 1.69134e-05, No Iterations 1
DILUPBiCGStab:  Solving for T, Initial residual = 0.00149835, Final residual = 2.61608e-06, No Iterations 1
DICPCG:  Solving for p_rgh, Initial residual = 0.00754585, Final residual = 7.42502e-05, No Iterations 196
time step continuity errors : sum local = 2.73302e-07, global = -5.46478e-22, cumulative = -1.52362e-20
ExecutionTime = 9.95 s  ClockTime = 10 s

Time = 89

DILUPBiCGStab:  Solving for Ux, Initial residual = 0.010634, Final residual = 1.17291e-05, No Iterations 1
DILUPBiCGStab:  Solving for Uy, Initial residual = 0.0105213, Final residual = 1.625e-05, No Iterations 1
DILUPBiCGStab:  Solving for T, Initial residual = 0.00148204, Final residual = 2.56182e-06, No Iterations 1
DICPCG:  Solving for p_rgh, Initial residual = 0.00746996, Final residual = 7.33145e-05, No Iterations 87
time step continuity errors : sum local = 3.3312e-07, global = -2.53584e-21, cumulative = -1.77721e-20
ExecutionTime = 10.04 s  ClockTime = 10 s

Time = 90

DILUPBiCGStab:  Solving for Ux, Initial residual = 0.0126664, Final residual = 2.21739e-05, No Iterations 1
DILUPBiCGStab:  Solving for Uy, Initial residual = 0.0121977, Final residual = 1.99921e-05, No Iterations 1
DILUPBiCGStab:  Solving for T, Initial residual = 0.00146611, Final residual = 2.5091e-06, No Iterations 1
DICPCG:  Solving for p_rgh, Initial residual = 0.00738632, Final residual = 7.24552e-05, No Iterations 216
time step continuity errors : sum local = 2.66168e-07, global = -5.5764e-22, cumulative = -1.83297e-20
ExecutionTime = 10.19 s  ClockTime = 10 s

Time = 91

DILUPBiCGStab:  Solving for Ux, Initial residual = 0.0112237, Final residual = 1.23998e-05, No Iterations 1
DILUPBiCGStab:  Solving for Uy, Initial residual = 0.0106591, Final residual = 1.62717e-05, No Iterations 1
DILUPBiCGStab:  Solving for T, Initial residual = 0.00145054, Final residual = 2.45786e-06, No Iterations 1
DICPCG:  Solving for p_rgh, Initial residual = 0.00729004, Final residual = 6.70914e-05, No Iterations 196
time step continuity errors : sum local = 2.47763e-07, global = 6.39897e-23, cumulative = -1.82657e-20
ExecutionTime = 10.34 s  ClockTime = 10 s

Time = 92

DILUPBiCGStab:  Solving for Ux, Initial residual = 0.0102169, Final residual = 1.10391e-05, No Iterations 1
DILUPBiCGStab:  Solving for Uy, Initial residual = 0.0101159, Final residual = 1.52748e-05, No Iterations 1
DILUPBiCGStab:  Solving for T, Initial residual = 0.00143532, Final residual = 2.40807e-06, No Iterations 1
DICPCG:  Solving for p_rgh, Initial residual = 0.00720154, Final residual = 6.55605e-05, No Iterations 87
time step continuity errors : sum local = 3.02831e-07, global = -1.96546e-21, cumulative = -2.02312e-20
ExecutionTime = 10.42 s  ClockTime = 10 s

Time = 93

DILUPBiCGStab:  Solving for Ux, Initial residual = 0.0121502, Final residual = 2.02542e-05, No Iterations 1
DILUPBiCGStab:  Solving for Uy, Initial residual = 0.0116128, Final residual = 1.8373e-05, No Iterations 1
DILUPBiCGStab:  Solving for T, Initial residual = 0.00142044, Final residual = 2.35967e-06, No Iterations 1
DICPCG:  Solving for p_rgh, Initial residual = 0.0071252, Final residual = 6.74926e-05, No Iterations 217
time step continuity errors : sum local = 2.48511e-07, global = 7.65287e-22, cumulative = -1.94659e-20
ExecutionTime = 10.58 s  ClockTime = 10 s

Time = 94

DILUPBiCGStab:  Solving for Ux, Initial residual = 0.0105212, Final residual = 1.12656e-05, No Iterations 1
DILUPBiCGStab:  Solving for Uy, Initial residual = 0.0102198, Final residual = 1.5091e-05, No Iterations 1
DILUPBiCGStab:  Solving for T, Initial residual = 0.00140589, Final residual = 2.31262e-06, No Iterations 1
DICPCG:  Solving for p_rgh, Initial residual = 0.00703302, Final residual = 6.88758e-05, No Iterations 196
time step continuity errors : sum local = 2.5486e-07, global = 1.96833e-22, cumulative = -1.92691e-20
ExecutionTime = 10.72 s  ClockTime = 10 s

Time = 95

DILUPBiCGStab:  Solving for Ux, Initial residual = 0.00980302, Final residual = 1.02456e-05, No Iterations 1
DILUPBiCGStab:  Solving for Uy, Initial residual = 0.00972141, Final residual = 1.42345e-05, No Iterations 1
DILUPBiCGStab:  Solving for T, Initial residual = 0.00139166, Final residual = 2.26689e-06, No Iterations 1
DICPCG:  Solving for p_rgh, Initial residual = 0.00695258, Final residual = 5.96156e-05, No Iterations 87
time step continuity errors : sum local = 2.81211e-07, global = 6.72342e-22, cumulative = -1.85967e-20
ExecutionTime = 10.8 s  ClockTime = 11 s

Time = 96

DILUPBiCGStab:  Solving for Ux, Initial residual = 0.0116151, Final residual = 1.90738e-05, No Iterations 1
DILUPBiCGStab:  Solving for Uy, Initial residual = 0.0111297, Final residual = 1.72501e-05, No Iterations 1
DILUPBiCGStab:  Solving for T, Initial residual = 0.00137774, Final residual = 2.22242e-06, No Iterations 1
DICPCG:  Solving for p_rgh, Initial residual = 0.00687645, Final residual = 6.67603e-05, No Iterations 217
time step continuity errors : sum local = 2.46253e-07, global = 7.15284e-24, cumulative = -1.85896e-20
ExecutionTime = 10.95 s  ClockTime = 11 s

Time = 97

DILUPBiCGStab:  Solving for Ux, Initial residual = 0.0101802, Final residual = 1.0599e-05, No Iterations 1
DILUPBiCGStab:  Solving for Uy, Initial residual = 0.00986531, Final residual = 1.42091e-05, No Iterations 1
DILUPBiCGStab:  Solving for T, Initial residual = 0.00136411, Final residual = 2.17919e-06, No Iterations 1
DICPCG:  Solving for p_rgh, Initial residual = 0.00679398, Final residual = 6.75336e-05, No Iterations 87
time step continuity errors : sum local = 3.26895e-07, global = -1.46729e-22, cumulative = -1.87363e-20
ExecutionTime = 11.04 s  ClockTime = 11 s

Time = 98

DILUPBiCGStab:  Solving for Ux, Initial residual = 0.0107796, Final residual = 1.60246e-05, No Iterations 1
DILUPBiCGStab:  Solving for Uy, Initial residual = 0.00952565, Final residual = 1.40763e-05, No Iterations 1
DILUPBiCGStab:  Solving for T, Initial residual = 0.00135077, Final residual = 2.13714e-06, No Iterations 1
DICPCG:  Solving for p_rgh, Initial residual = 0.00673715, Final residual = 6.72188e-05, No Iterations 217
time step continuity errors : sum local = 2.48072e-07, global = 1.38505e-21, cumulative = -1.73513e-20
ExecutionTime = 11.19 s  ClockTime = 11 s

Time = 99

DILUPBiCGStab:  Solving for Ux, Initial residual = 0.010781, Final residual = 1.28505e-05, No Iterations 1
DILUPBiCGStab:  Solving for Uy, Initial residual = 0.0105263, Final residual = 1.70004e-05, No Iterations 1
DILUPBiCGStab:  Solving for T, Initial residual = 0.00133771, Final residual = 2.09624e-06, No Iterations 1
DICPCG:  Solving for p_rgh, Initial residual = 0.00664543, Final residual = 6.19353e-05, No Iterations 87
time step continuity errors : sum local = 2.95457e-07, global = -4.35298e-22, cumulative = -1.77866e-20
ExecutionTime = 11.27 s  ClockTime = 11 s

Time = 100

DILUPBiCGStab:  Solving for Ux, Initial residual = 0.00968622, Final residual = 1.1523e-05, No Iterations 1
DILUPBiCGStab:  Solving for Uy, Initial residual = 0.0090515, Final residual = 1.19929e-05, No Iterations 1
DILUPBiCGStab:  Solving for T, Initial residual = 0.00132492, Final residual = 2.05647e-06, No Iterations 1
DICPCG:  Solving for p_rgh, Initial residual = 0.00658035, Final residual = 6.53821e-05, No Iterations 218
time step continuity errors : sum local = 2.41327e-07, global = -1.17742e-22, cumulative = -1.79043e-20
ExecutionTime = 11.5 s  ClockTime = 11 s

Time = 101

DILUPBiCGStab:  Solving for Ux, Initial residual = 0.00976325, Final residual = 1.0895e-05, No Iterations 1
DILUPBiCGStab:  Solving for Uy, Initial residual = 0.00971368, Final residual = 1.46438e-05, No Iterations 1
DILUPBiCGStab:  Solving for T, Initial residual = 0.00131239, Final residual = 2.01783e-06, No Iterations 1
DICPCG:  Solving for p_rgh, Initial residual = 0.00651281, Final residual = 6.27896e-05, No Iterations 87
time step continuity errors : sum local = 2.99612e-07, global = -7.31233e-22, cumulative = -1.86355e-20
ExecutionTime = 11.59 s  ClockTime = 11 s

Time = 102

DILUPBiCGStab:  Solving for Ux, Initial residual = 0.00995377, Final residual = 1.28848e-05, No Iterations 1
DILUPBiCGStab:  Solving for Uy, Initial residual = 0.00907169, Final residual = 1.23423e-05, No Iterations 1
DILUPBiCGStab:  Solving for T, Initial residual = 0.00130006, Final residual = 1.98014e-06, No Iterations 1
DICPCG:  Solving for p_rgh, Initial residual = 0.00646027, Final residual = 6.18829e-05, No Iterations 219
time step continuity errors : sum local = 2.28527e-07, global = -1.24344e-22, cumulative = -1.87599e-20
ExecutionTime = 11.74 s  ClockTime = 11 s

Time = 103

DILUPBiCGStab:  Solving for Ux, Initial residual = 0.00961196, Final residual = 1.04863e-05, No Iterations 1
DILUPBiCGStab:  Solving for Uy, Initial residual = 0.00957284, Final residual = 1.41509e-05, No Iterations 1
DILUPBiCGStab:  Solving for T, Initial residual = 0.00128792, Final residual = 1.94338e-06, No Iterations 1
DICPCG:  Solving for p_rgh, Initial residual = 0.00639633, Final residual = 6.38345e-05, No Iterations 87
time step continuity errors : sum local = 3.03988e-07, global = 1.10535e-21, cumulative = -1.76545e-20
ExecutionTime = 11.83 s  ClockTime = 12 s

Time = 104

DILUPBiCGStab:  Solving for Ux, Initial residual = 0.00956281, Final residual = 1.20424e-05, No Iterations 1
DILUPBiCGStab:  Solving for Uy, Initial residual = 0.00880582, Final residual = 1.17503e-05, No Iterations 1
DILUPBiCGStab:  Solving for T, Initial residual = 0.001276, Final residual = 1.90755e-06, No Iterations 1
DICPCG:  Solving for p_rgh, Initial residual = 0.00635033, Final residual = 6.22515e-05, No Iterations 219
time step continuity errors : sum local = 2.29937e-07, global = 1.45742e-22, cumulative = -1.75088e-20
ExecutionTime = 11.98 s  ClockTime = 12 s

Time = 105

DILUPBiCGStab:  Solving for Ux, Initial residual = 0.00945512, Final residual = 1.02007e-05, No Iterations 1
DILUPBiCGStab:  Solving for Uy, Initial residual = 0.00938369, Final residual = 1.37449e-05, No Iterations 1
DILUPBiCGStab:  Solving for T, Initial residual = 0.00126431, Final residual = 1.87268e-06, No Iterations 1
DICPCG:  Solving for p_rgh, Initial residual = 0.00628192, Final residual = 6.11738e-05, No Iterations 87
time step continuity errors : sum local = 2.92586e-07, global = -1.23195e-21, cumulative = -1.87407e-20
ExecutionTime = 12.07 s  ClockTime = 12 s

Time = 106

DILUPBiCGStab:  Solving for Ux, Initial residual = 0.0092843, Final residual = 1.13304e-05, No Iterations 1
DILUPBiCGStab:  Solving for Uy, Initial residual = 0.00856809, Final residual = 1.11785e-05, No Iterations 1
DILUPBiCGStab:  Solving for T, Initial residual = 0.00125285, Final residual = 1.83905e-06, No Iterations 1
DICPCG:  Solving for p_rgh, Initial residual = 0.0062371, Final residual = 5.92193e-05, No Iterations 220
time step continuity errors : sum local = 2.1871e-07, global = 1.50853e-21, cumulative = -1.72322e-20
ExecutionTime = 12.23 s  ClockTime = 12 s

Time = 107

DILUPBiCGStab:  Solving for Ux, Initial residual = 0.00916507, Final residual = 9.73707e-06, No Iterations 1
DILUPBiCGStab:  Solving for Uy, Initial residual = 0.00914837, Final residual = 1.31498e-05, No Iterations 1
DILUPBiCGStab:  Solving for T, Initial residual = 0.00124161, Final residual = 1.8081e-06, No Iterations 1
DICPCG:  Solving for p_rgh, Initial residual = 0.00617824, Final residual = 5.86664e-05, No Iterations 87
time step continuity errors : sum local = 2.82769e-07, global = -9.51981e-22, cumulative = -1.81842e-20
ExecutionTime = 12.31 s  ClockTime = 12 s

Time = 108

DILUPBiCGStab:  Solving for Ux, Initial residual = 0.00911064, Final residual = 1.10275e-05, No Iterations 1
DILUPBiCGStab:  Solving for Uy, Initial residual = 0.0084094, Final residual = 1.08249e-05, No Iterations 1
DILUPBiCGStab:  Solving for T, Initial residual = 0.00123059, Final residual = 1.77794e-06, No Iterations 1
DICPCG:  Solving for p_rgh, Initial residual = 0.00612723, Final residual = 5.99308e-05, No Iterations 220
time step continuity errors : sum local = 2.21314e-07, global = -1.12444e-21, cumulative = -1.93086e-20
ExecutionTime = 12.49 s  ClockTime = 12 s

Time = 109

DILUPBiCGStab:  Solving for Ux, Initial residual = 0.00894686, Final residual = 9.29017e-06, No Iterations 1
DILUPBiCGStab:  Solving for Uy, Initial residual = 0.00894122, Final residual = 1.26025e-05, No Iterations 1
DILUPBiCGStab:  Solving for T, Initial residual = 0.00121978, Final residual = 1.74849e-06, No Iterations 1
DICPCG:  Solving for p_rgh, Initial residual = 0.00606319, Final residual = 5.70056e-05, No Iterations 87
time step continuity errors : sum local = 2.75981e-07, global = -5.34206e-22, cumulative = -1.98428e-20
ExecutionTime = 12.57 s  ClockTime = 12 s

Time = 110

DILUPBiCGStab:  Solving for Ux, Initial residual = 0.0088721, Final residual = 1.05592e-05, No Iterations 1
DILUPBiCGStab:  Solving for Uy, Initial residual = 0.00820938, Final residual = 1.04155e-05, No Iterations 1
DILUPBiCGStab:  Solving for T, Initial residual = 0.00120917, Final residual = 1.71971e-06, No Iterations 1
DICPCG:  Solving for p_rgh, Initial residual = 0.00601767, Final residual = 5.93677e-05, No Iterations 220
time step continuity errors : sum local = 2.1918e-07, global = 7.11637e-22, cumulative = -1.91312e-20
ExecutionTime = 12.72 s  ClockTime = 12 s

Time = 111

DILUPBiCGStab:  Solving for Ux, Initial residual = 0.00873719, Final residual = 8.93021e-06, No Iterations 1
DILUPBiCGStab:  Solving for Uy, Initial residual = 0.00874409, Final residual = 1.2137e-05, No Iterations 1
DILUPBiCGStab:  Solving for T, Initial residual = 0.00119876, Final residual = 1.69159e-06, No Iterations 1
DICPCG:  Solving for p_rgh, Initial residual = 0.00595435, Final residual = 5.60672e-05, No Iterations 87
time step continuity errors : sum local = 2.717e-07, global = 2.25505e-21, cumulative = -1.68762e-20
ExecutionTime = 12.81 s  ClockTime = 13 s

Time = 112

DILUPBiCGStab:  Solving for Ux, Initial residual = 0.00866284, Final residual = 1.0133e-05, No Iterations 1
DILUPBiCGStab:  Solving for Uy, Initial residual = 0.00802962, Final residual = 1.00284e-05, No Iterations 1
DILUPBiCGStab:  Solving for T, Initial residual = 0.00118854, Final residual = 1.6641e-06, No Iterations 1
DICPCG:  Solving for p_rgh, Initial residual = 0.00590967, Final residual = 5.66458e-05, No Iterations 221
time step continuity errors : sum local = 2.09008e-07, global = -2.26777e-22, cumulative = -1.71029e-20
ExecutionTime = 12.97 s  ClockTime = 13 s

Time = 113

DILUPBiCGStab:  Solving for Ux, Initial residual = 0.00853931, Final residual = 8.64994e-06, No Iterations 1
DILUPBiCGStab:  Solving for Uy, Initial residual = 0.00856094, Final residual = 1.1706e-05, No Iterations 1
DILUPBiCGStab:  Solving for T, Initial residual = 0.00117851, Final residual = 1.63724e-06, No Iterations 1
DICPCG:  Solving for p_rgh, Initial residual = 0.00585301, Final residual = 5.59077e-05, No Iterations 87
time step continuity errors : sum local = 2.70346e-07, global = -2.20143e-22, cumulative = -1.73231e-20
ExecutionTime = 13.06 s  ClockTime = 13 s

Time = 114

DILUPBiCGStab:  Solving for Ux, Initial residual = 0.00847275, Final residual = 9.75064e-06, No Iterations 1
DILUPBiCGStab:  Solving for Uy, Initial residual = 0.00786589, Final residual = 9.67131e-06, No Iterations 1
DILUPBiCGStab:  Solving for T, Initial residual = 0.00116866, Final residual = 1.61103e-06, No Iterations 1
DICPCG:  Solving for p_rgh, Initial residual = 0.00580468, Final residual = 5.7153e-05, No Iterations 222
time step continuity errors : sum local = 2.10752e-07, global = 4.47011e-22, cumulative = -1.68761e-20
ExecutionTime = 13.21 s  ClockTime = 13 s

Time = 115

DILUPBiCGStab:  Solving for Ux, Initial residual = 0.00834871, Final residual = 8.33236e-06, No Iterations 1
DILUPBiCGStab:  Solving for Uy, Initial residual = 0.00838421, Final residual = 1.12973e-05, No Iterations 1
DILUPBiCGStab:  Solving for T, Initial residual = 0.00115899, Final residual = 1.58541e-06, No Iterations 1
DICPCG:  Solving for p_rgh, Initial residual = 0.00574542, Final residual = 5.5916e-05, No Iterations 87
time step continuity errors : sum local = 2.6965e-07, global = -3.98482e-22, cumulative = -1.72745e-20
ExecutionTime = 13.3 s  ClockTime = 13 s

Time = 116

DILUPBiCGStab:  Solving for Ux, Initial residual = 0.00828344, Final residual = 9.38308e-06, No Iterations 1
DILUPBiCGStab:  Solving for Uy, Initial residual = 0.00770549, Final residual = 9.33196e-06, No Iterations 1
DILUPBiCGStab:  Solving for T, Initial residual = 0.00114948, Final residual = 1.56035e-06, No Iterations 1
DICPCG:  Solving for p_rgh, Initial residual = 0.00569611, Final residual = 5.50901e-05, No Iterations 222
time step continuity errors : sum local = 2.03208e-07, global = 3.26747e-22, cumulative = -1.69478e-20
ExecutionTime = 13.45 s  ClockTime = 13 s

Time = 117

DILUPBiCGStab:  Solving for Ux, Initial residual = 0.00815616, Final residual = 7.96224e-06, No Iterations 1
DILUPBiCGStab:  Solving for Uy, Initial residual = 0.00820076, Final residual = 1.08559e-05, No Iterations 1
DILUPBiCGStab:  Solving for T, Initial residual = 0.00114015, Final residual = 1.53586e-06, No Iterations 1
DICPCG:  Solving for p_rgh, Initial residual = 0.00563869, Final residual = 5.61984e-05, No Iterations 87
time step continuity errors : sum local = 2.70263e-07, global = -2.28229e-21, cumulative = -1.92301e-20
ExecutionTime = 13.53 s  ClockTime = 13 s

Time = 118

DILUPBiCGStab:  Solving for Ux, Initial residual = 0.00809669, Final residual = 9.03917e-06, No Iterations 1
DILUPBiCGStab:  Solving for Uy, Initial residual = 0.00754346, Final residual = 9.01324e-06, No Iterations 1
DILUPBiCGStab:  Solving for T, Initial residual = 0.00113096, Final residual = 1.51189e-06, No Iterations 1
DICPCG:  Solving for p_rgh, Initial residual = 0.00560192, Final residual = 5.52024e-05, No Iterations 222
time step continuity errors : sum local = 2.03894e-07, global = -2.65505e-21, cumulative = -2.18851e-20
ExecutionTime = 13.69 s  ClockTime = 13 s

Time = 119

DILUPBiCGStab:  Solving for Ux, Initial residual = 0.0079779, Final residual = 7.67059e-06, No Iterations 1
DILUPBiCGStab:  Solving for Uy, Initial residual = 0.00802726, Final residual = 1.04629e-05, No Iterations 1
DILUPBiCGStab:  Solving for T, Initial residual = 0.0011219, Final residual = 1.4884e-06, No Iterations 1
DICPCG:  Solving for p_rgh, Initial residual = 0.00554488, Final residual = 5.46388e-05, No Iterations 221
time step continuity errors : sum local = 2.01722e-07, global = 6.87747e-22, cumulative = -2.11974e-20
ExecutionTime = 13.84 s  ClockTime = 14 s

Time = 120

DILUPBiCGStab:  Solving for Ux, Initial residual = 0.00713298, Final residual = 6.16985e-06, No Iterations 1
DILUPBiCGStab:  Solving for Uy, Initial residual = 0.00731354, Final residual = 8.70459e-06, No Iterations 1
DILUPBiCGStab:  Solving for T, Initial residual = 0.00111294, Final residual = 1.46537e-06, No Iterations 1
DICPCG:  Solving for p_rgh, Initial residual = 0.00550964, Final residual = 4.99608e-05, No Iterations 87
time step continuity errors : sum local = 2.35817e-07, global = -1.33952e-21, cumulative = -2.25369e-20
ExecutionTime = 13.92 s  ClockTime = 14 s

Time = 121

DILUPBiCGStab:  Solving for Ux, Initial residual = 0.00891183, Final residual = 1.15699e-05, No Iterations 1
DILUPBiCGStab:  Solving for Uy, Initial residual = 0.00822497, Final residual = 1.04019e-05, No Iterations 1
DILUPBiCGStab:  Solving for T, Initial residual = 0.00110414, Final residual = 1.44284e-06, No Iterations 1
DICPCG:  Solving for p_rgh, Initial residual = 0.00546401, Final residual = 5.35794e-05, No Iterations 223
time step continuity errors : sum local = 1.98288e-07, global = -1.57059e-22, cumulative = -2.2694e-20
ExecutionTime = 14.08 s  ClockTime = 14 s

Time = 122

DILUPBiCGStab:  Solving for Ux, Initial residual = 0.00720156, Final residual = 6.07083e-06, No Iterations 1
DILUPBiCGStab:  Solving for Uy, Initial residual = 0.00738325, Final residual = 8.53297e-06, No Iterations 1
DILUPBiCGStab:  Solving for T, Initial residual = 0.00109548, Final residual = 1.42081e-06, No Iterations 1
DICPCG:  Solving for p_rgh, Initial residual = 0.00541362, Final residual = 5.33128e-05, No Iterations 221
time step continuity errors : sum local = 1.97126e-07, global = 1.50715e-21, cumulative = -2.11868e-20
ExecutionTime = 14.23 s  ClockTime = 14 s

Time = 123

DILUPBiCGStab:  Solving for Ux, Initial residual = 0.00701058, Final residual = 5.77819e-06, No Iterations 1
DILUPBiCGStab:  Solving for Uy, Initial residual = 0.00723717, Final residual = 8.24805e-06, No Iterations 1
DILUPBiCGStab:  Solving for T, Initial residual = 0.00108697, Final residual = 1.39926e-06, No Iterations 1
DICPCG:  Solving for p_rgh, Initial residual = 0.00537061, Final residual = 5.1324e-05, No Iterations 87
time step continuity errors : sum local = 2.42855e-07, global = 9.34888e-22, cumulative = -2.02519e-20
ExecutionTime = 14.32 s  ClockTime = 14 s

Time = 124

DILUPBiCGStab:  Solving for Ux, Initial residual = 0.00845457, Final residual = 1.08546e-05, No Iterations 1
DILUPBiCGStab:  Solving for Uy, Initial residual = 0.00788576, Final residual = 9.83247e-06, No Iterations 1
DILUPBiCGStab:  Solving for T, Initial residual = 0.00107861, Final residual = 1.37818e-06, No Iterations 1
DICPCG:  Solving for p_rgh, Initial residual = 0.00533073, Final residual = 5.28208e-05, No Iterations 224
time step continuity errors : sum local = 1.95703e-07, global = -3.02652e-22, cumulative = -2.05546e-20
ExecutionTime = 14.48 s  ClockTime = 14 s

Time = 125

DILUPBiCGStab:  Solving for Ux, Initial residual = 0.00711201, Final residual = 5.98626e-06, No Iterations 1
DILUPBiCGStab:  Solving for Uy, Initial residual = 0.0072518, Final residual = 8.33037e-06, No Iterations 1
DILUPBiCGStab:  Solving for T, Initial residual = 0.00107038, Final residual = 1.35755e-06, No Iterations 1
DICPCG:  Solving for p_rgh, Initial residual = 0.00527558, Final residual = 5.1085e-05, No Iterations 222
time step continuity errors : sum local = 1.89112e-07, global = -8.05095e-22, cumulative = -2.13597e-20
ExecutionTime = 14.63 s  ClockTime = 14 s

Time = 126

DILUPBiCGStab:  Solving for Ux, Initial residual = 0.00680937, Final residual = 5.57607e-06, No Iterations 1
DILUPBiCGStab:  Solving for Uy, Initial residual = 0.00703173, Final residual = 7.92933e-06, No Iterations 1
DILUPBiCGStab:  Solving for T, Initial residual = 0.00106229, Final residual = 1.33737e-06, No Iterations 1
DICPCG:  Solving for p_rgh, Initial residual = 0.00523654, Final residual = 5.00047e-05, No Iterations 86
time step continuity errors : sum local = 2.36795e-07, global = -1.70137e-21, cumulative = -2.3061e-20
ExecutionTime = 14.72 s  ClockTime = 14 s

Time = 127

DILUPBiCGStab:  Solving for Ux, Initial residual = 0.00820181, Final residual = 1.01952e-05, No Iterations 1
DILUPBiCGStab:  Solving for Uy, Initial residual = 0.00763778, Final residual = 9.30795e-06, No Iterations 1
DILUPBiCGStab:  Solving for T, Initial residual = 0.00105433, Final residual = 1.31763e-06, No Iterations 1
DICPCG:  Solving for p_rgh, Initial residual = 0.00519858, Final residual = 5.06057e-05, No Iterations 225
time step continuity errors : sum local = 1.87684e-07, global = -5.95128e-22, cumulative = -2.36562e-20
ExecutionTime = 14.88 s  ClockTime = 15 s

Time = 128

DILUPBiCGStab:  Solving for Ux, Initial residual = 0.00687312, Final residual = 5.63061e-06, No Iterations 1
DILUPBiCGStab:  Solving for Uy, Initial residual = 0.00704534, Final residual = 7.89049e-06, No Iterations 1
DILUPBiCGStab:  Solving for T, Initial residual = 0.00104649, Final residual = 1.29835e-06, No Iterations 1
DICPCG:  Solving for p_rgh, Initial residual = 0.0051408, Final residual = 4.99817e-05, No Iterations 223
time step continuity errors : sum local = 1.85199e-07, global = -2.0471e-23, cumulative = -2.36766e-20
ExecutionTime = 15.03 s  ClockTime = 15 s

Time = 129

DILUPBiCGStab:  Solving for Ux, Initial residual = 0.00660504, Final residual = 5.3017e-06, No Iterations 1
DILUPBiCGStab:  Solving for Uy, Initial residual = 0.00683245, Final residual = 7.52621e-06, No Iterations 1
DILUPBiCGStab:  Solving for T, Initial residual = 0.00103879, Final residual = 1.27948e-06, No Iterations 1
DICPCG:  Solving for p_rgh, Initial residual = 0.00510262, Final residual = 4.75276e-05, No Iterations 86
time step continuity errors : sum local = 2.27434e-07, global = -2.49206e-21, cumulative = -2.61687e-20
ExecutionTime = 15.11 s  ClockTime = 15 s

Time = 130

DILUPBiCGStab:  Solving for Ux, Initial residual = 0.00794798, Final residual = 9.70717e-06, No Iterations 1
DILUPBiCGStab:  Solving for Uy, Initial residual = 0.00740829, Final residual = 8.8552e-06, No Iterations 1
DILUPBiCGStab:  Solving for T, Initial residual = 0.0010312, Final residual = 1.26101e-06, No Iterations 1
DICPCG:  Solving for p_rgh, Initial residual = 0.00506131, Final residual = 4.98073e-05, No Iterations 225
time step continuity errors : sum local = 1.84878e-07, global = -1.70144e-22, cumulative = -2.63388e-20
ExecutionTime = 15.28 s  ClockTime = 15 s

Time = 131

DILUPBiCGStab:  Solving for Ux, Initial residual = 0.00669856, Final residual = 5.38535e-06, No Iterations 1
DILUPBiCGStab:  Solving for Uy, Initial residual = 0.0068645, Final residual = 7.56244e-06, No Iterations 1
DILUPBiCGStab:  Solving for T, Initial residual = 0.00102374, Final residual = 1.24293e-06, No Iterations 1
DICPCG:  Solving for p_rgh, Initial residual = 0.00500753, Final residual = 4.98583e-05, No Iterations 223
time step continuity errors : sum local = 1.84874e-07, global = 4.20419e-22, cumulative = -2.59184e-20
ExecutionTime = 15.43 s  ClockTime = 15 s

Time = 132

DILUPBiCGStab:  Solving for Ux, Initial residual = 0.00642813, Final residual = 5.03166e-06, No Iterations 1
DILUPBiCGStab:  Solving for Uy, Initial residual = 0.00665274, Final residual = 7.16235e-06, No Iterations 1
DILUPBiCGStab:  Solving for T, Initial residual = 0.00101639, Final residual = 1.22602e-06, No Iterations 1
DICPCG:  Solving for p_rgh, Initial residual = 0.00497156, Final residual = 4.59398e-05, No Iterations 86
time step continuity errors : sum local = 2.20889e-07, global = 1.5356e-22, cumulative = -2.57649e-20
ExecutionTime = 15.52 s  ClockTime = 15 s

Time = 133

DILUPBiCGStab:  Solving for Ux, Initial residual = 0.00769849, Final residual = 9.19719e-06, No Iterations 1
DILUPBiCGStab:  Solving for Uy, Initial residual = 0.00717934, Final residual = 8.41122e-06, No Iterations 1
DILUPBiCGStab:  Solving for T, Initial residual = 0.00100915, Final residual = 1.20968e-06, No Iterations 1
DICPCG:  Solving for p_rgh, Initial residual = 0.00493932, Final residual = 4.9309e-05, No Iterations 225
time step continuity errors : sum local = 1.83129e-07, global = -1.40707e-21, cumulative = -2.71719e-20
ExecutionTime = 15.67 s  ClockTime = 15 s

Time = 134

DILUPBiCGStab:  Solving for Ux, Initial residual = 0.00651655, Final residual = 5.14349e-06, No Iterations 1
DILUPBiCGStab:  Solving for Uy, Initial residual = 0.00668189, Final residual = 7.20775e-06, No Iterations 1
[...]
DICPCG:  Solving for p_rgh, Initial residual = 0.000630034, Final residual = 6.20892e-06, No Iterations 241
time step continuity errors : sum local = 2.46369e-08, global = 1.37039e-20, cumulative = -6.67629e-20
ExecutionTime = 160.35 s  ClockTime = 160 s

Time = 968

DILUPBiCGStab:  Solving for Ux, Initial residual = 0.000765964, Final residual = 8.09673e-08, No Iterations 1
DILUPBiCGStab:  Solving for Uy, Initial residual = 0.00078235, Final residual = 1.10142e-07, No Iterations 1
DILUPBiCGStab:  Solving for T, Initial residual = 0.000164414, Final residual = 4.84703e-08, No Iterations 1
DICPCG:  Solving for p_rgh, Initial residual = 0.000629129, Final residual = 6.24471e-06, No Iterations 241
time step continuity errors : sum local = 2.47788e-08, global = -1.85631e-20, cumulative = -8.5326e-20
ExecutionTime = 160.56 s  ClockTime = 161 s

Time = 969

DILUPBiCGStab:  Solving for Ux, Initial residual = 0.000765101, Final residual = 8.07911e-08, No Iterations 1
DILUPBiCGStab:  Solving for Uy, Initial residual = 0.000781519, Final residual = 1.09917e-07, No Iterations 1
DILUPBiCGStab:  Solving for T, Initial residual = 0.000164266, Final residual = 4.84026e-08, No Iterations 1
DICPCG:  Solving for p_rgh, Initial residual = 0.0006284, Final residual = 6.17143e-06, No Iterations 241
time step continuity errors : sum local = 2.44901e-08, global = 8.20488e-22, cumulative = -8.45055e-20
ExecutionTime = 160.78 s  ClockTime = 161 s

Time = 970

DILUPBiCGStab:  Solving for Ux, Initial residual = 0.000764255, Final residual = 8.06421e-08, No Iterations 1
DILUPBiCGStab:  Solving for Uy, Initial residual = 0.000780684, Final residual = 1.09682e-07, No Iterations 1
DILUPBiCGStab:  Solving for T, Initial residual = 0.000164118, Final residual = 4.8335e-08, No Iterations 1
DICPCG:  Solving for p_rgh, Initial residual = 0.000627666, Final residual = 6.19411e-06, No Iterations 241
time step continuity errors : sum local = 2.4581e-08, global = -1.14289e-20, cumulative = -9.59344e-20
ExecutionTime = 160.96 s  ClockTime = 161 s

Time = 971

DILUPBiCGStab:  Solving for Ux, Initial residual = 0.000763425, Final residual = 8.04502e-08, No Iterations 1
DILUPBiCGStab:  Solving for Uy, Initial residual = 0.000779849, Final residual = 1.09444e-07, No Iterations 1
DILUPBiCGStab:  Solving for T, Initial residual = 0.00016397, Final residual = 4.82677e-08, No Iterations 1
DICPCG:  Solving for p_rgh, Initial residual = 0.000627005, Final residual = 6.14831e-06, No Iterations 241
time step continuity errors : sum local = 2.44006e-08, global = -6.17777e-21, cumulative = -1.02112e-19
ExecutionTime = 161.13 s  ClockTime = 161 s

Time = 972

DILUPBiCGStab:  Solving for Ux, Initial residual = 0.000762594, Final residual = 8.02976e-08, No Iterations 1
DILUPBiCGStab:  Solving for Uy, Initial residual = 0.000779017, Final residual = 1.09216e-07, No Iterations 1
DILUPBiCGStab:  Solving for T, Initial residual = 0.000163823, Final residual = 4.82008e-08, No Iterations 1
DICPCG:  Solving for p_rgh, Initial residual = 0.000626315, Final residual = 6.17337e-06, No Iterations 241
time step continuity errors : sum local = 2.45006e-08, global = 5.36804e-21, cumulative = -9.67442e-20
ExecutionTime = 161.3 s  ClockTime = 161 s

Time = 973

DILUPBiCGStab:  Solving for Ux, Initial residual = 0.00076176, Final residual = 8.01573e-08, No Iterations 1
DILUPBiCGStab:  Solving for Uy, Initial residual = 0.000778189, Final residual = 1.09013e-07, No Iterations 1
DILUPBiCGStab:  Solving for T, Initial residual = 0.000163676, Final residual = 4.81342e-08, No Iterations 1
DICPCG:  Solving for p_rgh, Initial residual = 0.000625672, Final residual = 6.11609e-06, No Iterations 241
time step continuity errors : sum local = 2.4275e-08, global = 7.05599e-21, cumulative = -8.96882e-20
ExecutionTime = 161.47 s  ClockTime = 162 s

Time = 974

DILUPBiCGStab:  Solving for Ux, Initial residual = 0.000760926, Final residual = 7.99807e-08, No Iterations 1
DILUPBiCGStab:  Solving for Uy, Initial residual = 0.000777361, Final residual = 1.08772e-07, No Iterations 1
DILUPBiCGStab:  Solving for T, Initial residual = 0.000163529, Final residual = 4.80679e-08, No Iterations 1
DICPCG:  Solving for p_rgh, Initial residual = 0.00062498, Final residual = 6.11604e-06, No Iterations 241
time step continuity errors : sum local = 2.42752e-08, global = -6.06712e-21, cumulative = -9.57553e-20
ExecutionTime = 161.65 s  ClockTime = 162 s

Time = 975

DILUPBiCGStab:  Solving for Ux, Initial residual = 0.000760099, Final residual = 7.98108e-08, No Iterations 1
DILUPBiCGStab:  Solving for Uy, Initial residual = 0.000776535, Final residual = 1.08546e-07, No Iterations 1
DILUPBiCGStab:  Solving for T, Initial residual = 0.000163382, Final residual = 4.80018e-08, No Iterations 1
DICPCG:  Solving for p_rgh, Initial residual = 0.000624335, Final residual = 6.07213e-06, No Iterations 241
time step continuity errors : sum local = 2.41024e-08, global = 9.48904e-21, cumulative = -8.62662e-20
ExecutionTime = 161.82 s  ClockTime = 162 s

Time = 976

DILUPBiCGStab:  Solving for Ux, Initial residual = 0.000759271, Final residual = 7.96634e-08, No Iterations 1
DILUPBiCGStab:  Solving for Uy, Initial residual = 0.00077571, Final residual = 1.0833e-07, No Iterations 1
DILUPBiCGStab:  Solving for T, Initial residual = 0.000163236, Final residual = 4.79359e-08, No Iterations 1
DICPCG:  Solving for p_rgh, Initial residual = 0.000623655, Final residual = 6.09203e-06, No Iterations 241
time step continuity errors : sum local = 2.41819e-08, global = -4.06693e-22, cumulative = -8.66729e-20
ExecutionTime = 161.99 s  ClockTime = 162 s

Time = 977

DILUPBiCGStab:  Solving for Ux, Initial residual = 0.000758446, Final residual = 7.95052e-08, No Iterations 1
DILUPBiCGStab:  Solving for Uy, Initial residual = 0.000774888, Final residual = 1.0811e-07, No Iterations 1
DILUPBiCGStab:  Solving for T, Initial residual = 0.00016309, Final residual = 4.78702e-08, No Iterations 1
DICPCG:  Solving for p_rgh, Initial residual = 0.000623016, Final residual = 6.04294e-06, No Iterations 241
time step continuity errors : sum local = 2.39885e-08, global = 5.75431e-22, cumulative = -8.60975e-20
ExecutionTime = 162.16 s  ClockTime = 162 s

Time = 978

DILUPBiCGStab:  Solving for Ux, Initial residual = 0.000757622, Final residual = 7.93461e-08, No Iterations 1
DILUPBiCGStab:  Solving for Uy, Initial residual = 0.000774067, Final residual = 1.07884e-07, No Iterations 1
DILUPBiCGStab:  Solving for T, Initial residual = 0.000162945, Final residual = 4.78046e-08, No Iterations 1
DICPCG:  Solving for p_rgh, Initial residual = 0.000622336, Final residual = 6.04186e-06, No Iterations 241
time step continuity errors : sum local = 2.39848e-08, global = 5.69788e-21, cumulative = -8.03996e-20
ExecutionTime = 162.34 s  ClockTime = 162 s

Time = 979

DILUPBiCGStab:  Solving for Ux, Initial residual = 0.000756801, Final residual = 7.9186e-08, No Iterations 1
DILUPBiCGStab:  Solving for Uy, Initial residual = 0.000773248, Final residual = 1.07669e-07, No Iterations 1
DILUPBiCGStab:  Solving for T, Initial residual = 0.000162799, Final residual = 4.77392e-08, No Iterations 1
DICPCG:  Solving for p_rgh, Initial residual = 0.000621691, Final residual = 6.00187e-06, No Iterations 241
time step continuity errors : sum local = 2.38273e-08, global = -6.72779e-21, cumulative = -8.71274e-20
ExecutionTime = 162.51 s  ClockTime = 163 s

Time = 980

DILUPBiCGStab:  Solving for Ux, Initial residual = 0.000755982, Final residual = 7.90303e-08, No Iterations 1
DILUPBiCGStab:  Solving for Uy, Initial residual = 0.000772431, Final residual = 1.07443e-07, No Iterations 1
DILUPBiCGStab:  Solving for T, Initial residual = 0.000162654, Final residual = 4.7674e-08, No Iterations 1
DICPCG:  Solving for p_rgh, Initial residual = 0.000621015, Final residual = 6.01174e-06, No Iterations 241
time step continuity errors : sum local = 2.38671e-08, global = 1.20388e-20, cumulative = -7.50886e-20
ExecutionTime = 162.69 s  ClockTime = 163 s

Time = 981

DILUPBiCGStab:  Solving for Ux, Initial residual = 0.000755164, Final residual = 7.88727e-08, No Iterations 1
DILUPBiCGStab:  Solving for Uy, Initial residual = 0.000771615, Final residual = 1.07226e-07, No Iterations 1
DILUPBiCGStab:  Solving for T, Initial residual = 0.00016251, Final residual = 4.7609e-08, No Iterations 1
DICPCG:  Solving for p_rgh, Initial residual = 0.000620376, Final residual = 5.97331e-06, No Iterations 241
time step continuity errors : sum local = 2.37157e-08, global = 2.88814e-21, cumulative = -7.22005e-20
ExecutionTime = 162.86 s  ClockTime = 163 s

Time = 982

DILUPBiCGStab:  Solving for Ux, Initial residual = 0.000754347, Final residual = 7.87221e-08, No Iterations 1
DILUPBiCGStab:  Solving for Uy, Initial residual = 0.000770801, Final residual = 1.07014e-07, No Iterations 1
DILUPBiCGStab:  Solving for T, Initial residual = 0.000162365, Final residual = 4.75442e-08, No Iterations 1
DICPCG:  Solving for p_rgh, Initial residual = 0.000619703, Final residual = 5.97652e-06, No Iterations 241
time step continuity errors : sum local = 2.3729e-08, global = 2.35466e-21, cumulative = -6.98458e-20
ExecutionTime = 163.04 s  ClockTime = 163 s

Time = 983

DILUPBiCGStab:  Solving for Ux, Initial residual = 0.000753533, Final residual = 7.85597e-08, No Iterations 1
DILUPBiCGStab:  Solving for Uy, Initial residual = 0.000769988, Final residual = 1.06794e-07, No Iterations 1
DILUPBiCGStab:  Solving for T, Initial residual = 0.000162221, Final residual = 4.74795e-08, No Iterations 1
DICPCG:  Solving for p_rgh, Initial residual = 0.000619057, Final residual = 6.1499e-06, No Iterations 240
time step continuity errors : sum local = 2.44159e-08, global = 4.84593e-21, cumulative = -6.49999e-20
ExecutionTime = 163.2 s  ClockTime = 163 s

Time = 984

DILUPBiCGStab:  Solving for Ux, Initial residual = 0.000752572, Final residual = 7.88213e-08, No Iterations 1
DILUPBiCGStab:  Solving for Uy, Initial residual = 0.000769211, Final residual = 1.0707e-07, No Iterations 1
DILUPBiCGStab:  Solving for T, Initial residual = 0.000162077, Final residual = 4.74149e-08, No Iterations 1
DICPCG:  Solving for p_rgh, Initial residual = 0.000618833, Final residual = 6.12682e-06, No Iterations 240
time step continuity errors : sum local = 2.43278e-08, global = -4.2262e-21, cumulative = -6.92261e-20
ExecutionTime = 163.39 s  ClockTime = 164 s

Time = 985

DILUPBiCGStab:  Solving for Ux, Initial residual = 0.000751877, Final residual = 7.84201e-08, No Iterations 1
DILUPBiCGStab:  Solving for Uy, Initial residual = 0.000768371, Final residual = 1.06607e-07, No Iterations 1
DILUPBiCGStab:  Solving for T, Initial residual = 0.000161934, Final residual = 4.73506e-08, No Iterations 1
DICPCG:  Solving for p_rgh, Initial residual = 0.000618451, Final residual = 5.78232e-06, No Iterations 241
time step continuity errors : sum local = 2.29609e-08, global = 9.8259e-21, cumulative = -5.94002e-20
ExecutionTime = 163.55 s  ClockTime = 164 s

Time = 986

DILUPBiCGStab:  Solving for Ux, Initial residual = 0.000751284, Final residual = 7.8462e-08, No Iterations 1
DILUPBiCGStab:  Solving for Uy, Initial residual = 0.000767547, Final residual = 1.0646e-07, No Iterations 1
DILUPBiCGStab:  Solving for T, Initial residual = 0.000161791, Final residual = 4.72864e-08, No Iterations 1
DICPCG:  Solving for p_rgh, Initial residual = 0.000617062, Final residual = 5.69968e-06, No Iterations 241
time step continuity errors : sum local = 2.26316e-08, global = 9.13691e-21, cumulative = -5.02633e-20
ExecutionTime = 163.72 s  ClockTime = 164 s

Time = 987

DILUPBiCGStab:  Solving for Ux, Initial residual = 0.000750353, Final residual = 7.81286e-08, No Iterations 1
DILUPBiCGStab:  Solving for Uy, Initial residual = 0.00076675, Final residual = 1.06178e-07, No Iterations 1
DILUPBiCGStab:  Solving for T, Initial residual = 0.000161648, Final residual = 4.72224e-08, No Iterations 1
DICPCG:  Solving for p_rgh, Initial residual = 0.000617032, Final residual = 5.88956e-06, No Iterations 241
time step continuity errors : sum local = 2.33868e-08, global = 6.94535e-21, cumulative = -4.33179e-20
ExecutionTime = 163.89 s  ClockTime = 164 s

Time = 988

DILUPBiCGStab:  Solving for Ux, Initial residual = 0.000749436, Final residual = 7.77891e-08, No Iterations 1
DILUPBiCGStab:  Solving for Uy, Initial residual = 0.000765957, Final residual = 1.05744e-07, No Iterations 1
DILUPBiCGStab:  Solving for T, Initial residual = 0.000161505, Final residual = 4.71586e-08, No Iterations 1
DICPCG:  Solving for p_rgh, Initial residual = 0.000616073, Final residual = 5.80807e-06, No Iterations 241
time step continuity errors : sum local = 2.30642e-08, global = -6.44804e-21, cumulative = -4.9766e-20
ExecutionTime = 164.06 s  ClockTime = 164 s

Time = 989

DILUPBiCGStab:  Solving for Ux, Initial residual = 0.000748642, Final residual = 7.76192e-08, No Iterations 1
DILUPBiCGStab:  Solving for Uy, Initial residual = 0.000765152, Final residual = 1.05516e-07, No Iterations 1
DILUPBiCGStab:  Solving for T, Initial residual = 0.000161363, Final residual = 4.70949e-08, No Iterations 1
DICPCG:  Solving for p_rgh, Initial residual = 0.000615198, Final residual = 5.81018e-06, No Iterations 241
time step continuity errors : sum local = 2.30738e-08, global = -1.09282e-20, cumulative = -6.06942e-20
ExecutionTime = 164.23 s  ClockTime = 164 s

Time = 990

DILUPBiCGStab:  Solving for Ux, Initial residual = 0.000747871, Final residual = 7.7463e-08, No Iterations 1
DILUPBiCGStab:  Solving for Uy, Initial residual = 0.000764346, Final residual = 1.05269e-07, No Iterations 1
DILUPBiCGStab:  Solving for T, Initial residual = 0.000161221, Final residual = 4.70313e-08, No Iterations 1
DICPCG:  Solving for p_rgh, Initial residual = 0.00061446, Final residual = 5.82794e-06, No Iterations 241
time step continuity errors : sum local = 2.31442e-08, global = -6.64227e-21, cumulative = -6.73364e-20
ExecutionTime = 164.41 s  ClockTime = 165 s

Time = 991

DILUPBiCGStab:  Solving for Ux, Initial residual = 0.000747078, Final residual = 7.73056e-08, No Iterations 1
DILUPBiCGStab:  Solving for Uy, Initial residual = 0.000763544, Final residual = 1.05066e-07, No Iterations 1
DILUPBiCGStab:  Solving for T, Initial residual = 0.00016108, Final residual = 4.6968e-08, No Iterations 1
DICPCG:  Solving for p_rgh, Initial residual = 0.000613852, Final residual = 5.75036e-06, No Iterations 241
time step continuity errors : sum local = 2.28371e-08, global = -1.8529e-20, cumulative = -8.58654e-20
ExecutionTime = 164.57 s  ClockTime = 165 s

Time = 992

DILUPBiCGStab:  Solving for Ux, Initial residual = 0.000746269, Final residual = 7.71693e-08, No Iterations 1
DILUPBiCGStab:  Solving for Uy, Initial residual = 0.000762748, Final residual = 1.04852e-07, No Iterations 1
DILUPBiCGStab:  Solving for T, Initial residual = 0.000160938, Final residual = 4.69048e-08, No Iterations 1
DICPCG:  Solving for p_rgh, Initial residual = 0.000613181, Final residual = 5.76374e-06, No Iterations 241
time step continuity errors : sum local = 2.28911e-08, global = 6.78183e-21, cumulative = -7.90836e-20
ExecutionTime = 164.75 s  ClockTime = 165 s

Time = 993

DILUPBiCGStab:  Solving for Ux, Initial residual = 0.000745463, Final residual = 7.69961e-08, No Iterations 1
DILUPBiCGStab:  Solving for Uy, Initial residual = 0.000761952, Final residual = 1.04632e-07, No Iterations 1
DILUPBiCGStab:  Solving for T, Initial residual = 0.000160797, Final residual = 4.68417e-08, No Iterations 1
DICPCG:  Solving for p_rgh, Initial residual = 0.00061255, Final residual = 5.75447e-06, No Iterations 241
time step continuity errors : sum local = 2.28551e-08, global = 7.5298e-21, cumulative = -7.15538e-20
ExecutionTime = 164.93 s  ClockTime = 165 s

Time = 994

DILUPBiCGStab:  Solving for Ux, Initial residual = 0.000744666, Final residual = 7.68718e-08, No Iterations 1
DILUPBiCGStab:  Solving for Uy, Initial residual = 0.000761157, Final residual = 1.04426e-07, No Iterations 1
DILUPBiCGStab:  Solving for T, Initial residual = 0.000160656, Final residual = 4.67788e-08, No Iterations 1
DICPCG:  Solving for p_rgh, Initial residual = 0.000611915, Final residual = 5.72331e-06, No Iterations 241
time step continuity errors : sum local = 2.27318e-08, global = -1.00981e-20, cumulative = -8.1652e-20
ExecutionTime = 165.13 s  ClockTime = 165 s

Time = 995

DILUPBiCGStab:  Solving for Ux, Initial residual = 0.000743873, Final residual = 7.67108e-08, No Iterations 1
DILUPBiCGStab:  Solving for Uy, Initial residual = 0.000760363, Final residual = 1.04232e-07, No Iterations 1
DILUPBiCGStab:  Solving for T, Initial residual = 0.000160516, Final residual = 4.67161e-08, No Iterations 1
DICPCG:  Solving for p_rgh, Initial residual = 0.000611282, Final residual = 6.09209e-06, No Iterations 240
time step continuity errors : sum local = 2.41939e-08, global = 1.98287e-20, cumulative = -6.18233e-20
ExecutionTime = 165.3 s  ClockTime = 165 s

Time = 996

DILUPBiCGStab:  Solving for Ux, Initial residual = 0.00074294, Final residual = 7.70071e-08, No Iterations 1
DILUPBiCGStab:  Solving for Uy, Initial residual = 0.000759606, Final residual = 1.04524e-07, No Iterations 1
DILUPBiCGStab:  Solving for T, Initial residual = 0.000160376, Final residual = 4.66536e-08, No Iterations 1
DICPCG:  Solving for p_rgh, Initial residual = 0.000611102, Final residual = 6.04253e-06, No Iterations 240
time step continuity errors : sum local = 2.40006e-08, global = -1.3667e-21, cumulative = -6.319e-20
ExecutionTime = 165.48 s  ClockTime = 166 s

Time = 997

DILUPBiCGStab:  Solving for Ux, Initial residual = 0.000742255, Final residual = 7.65949e-08, No Iterations 1
DILUPBiCGStab:  Solving for Uy, Initial residual = 0.000758786, Final residual = 1.04057e-07, No Iterations 1
DILUPBiCGStab:  Solving for T, Initial residual = 0.000160236, Final residual = 4.65911e-08, No Iterations 1
DICPCG:  Solving for p_rgh, Initial residual = 0.00061076, Final residual = 6.10002e-06, No Iterations 240
time step continuity errors : sum local = 2.42294e-08, global = 9.32414e-21, cumulative = -5.38658e-20
ExecutionTime = 165.66 s  ClockTime = 166 s

Time = 998

DILUPBiCGStab:  Solving for Ux, Initial residual = 0.000741525, Final residual = 7.63186e-08, No Iterations 1
DILUPBiCGStab:  Solving for Uy, Initial residual = 0.000757989, Final residual = 1.0365e-07, No Iterations 1
DILUPBiCGStab:  Solving for T, Initial residual = 0.000160096, Final residual = 4.65289e-08, No Iterations 1
DICPCG:  Solving for p_rgh, Initial residual = 0.000609763, Final residual = 5.58634e-06, No Iterations 241
time step continuity errors : sum local = 2.21912e-08, global = 1.76023e-21, cumulative = -5.21056e-20
ExecutionTime = 165.83 s  ClockTime = 166 s

Time = 999

DILUPBiCGStab:  Solving for Ux, Initial residual = 0.000740856, Final residual = 7.65686e-08, No Iterations 1
DILUPBiCGStab:  Solving for Uy, Initial residual = 0.000757204, Final residual = 1.03831e-07, No Iterations 1
DILUPBiCGStab:  Solving for T, Initial residual = 0.000159957, Final residual = 4.64668e-08, No Iterations 1
DICPCG:  Solving for p_rgh, Initial residual = 0.000608973, Final residual = 6.08615e-06, No Iterations 240
time step continuity errors : sum local = 2.4171e-08, global = 5.6871e-22, cumulative = -5.15369e-20
ExecutionTime = 166 s  ClockTime = 166 s

Time = 1000

DILUPBiCGStab:  Solving for Ux, Initial residual = 0.000739799, Final residual = 7.6076e-08, No Iterations 1
DILUPBiCGStab:  Solving for Uy, Initial residual = 0.000756453, Final residual = 1.03276e-07, No Iterations 1
DILUPBiCGStab:  Solving for T, Initial residual = 0.000159818, Final residual = 4.64049e-08, No Iterations 1
DICPCG:  Solving for p_rgh, Initial residual = 0.000607954, Final residual = 5.9888e-06, No Iterations 240
time step continuity errors : sum local = 2.37881e-08, global = -7.91655e-21, cumulative = -5.94534e-20
ExecutionTime = 166.26 s  ClockTime = 166 s

End

