/*---------------------------------------------------------------------------*\
| =========                 |                                                 |
| \\      /  F ield         | OpenFOAM: The Open Source CFD Toolbox           |
|  \\    /   O peration     | Version:  2412                                  |
|   \\  /    A nd           | Website:  www.openfoam.com                      |
|    \\/     M anipulation  |                                                 |
\*---------------------------------------------------------------------------*/
Build  : _2c4871ff-20250317 OPENFOAM=2412 version=2412
Arch   : "LSB;label=32;scalar=64"
Exec   : buoyantBoussinesqSimpleFoam
Date   : Jun 16 2025
Time   : 10:07:08
Host   : jpsrocha
PID    : 1018776
I/O    : uncollated
Case   : /home/jpsrocha/Documents/OpenFOAM/hotRoomSimple
nProcs : 1
trapFpe: Floating point exception trapping enabled (FOAM_SIGFPE).
fileModificationChecking : Monitoring run-time modified files using timeStampMaster (fileModificationSkew 5, maxFileModificationPolls 20)
allowSystemOperations : Allowing user-supplied system call operations

// * * * * * * * * * * * * * * * * * * * * * * * * * * * * * * * * * * * * * //
Create time

Create mesh for time = 0


SIMPLE: convergence criteria
    field p_rgh	 tolerance 0.01
    field U	 tolerance 0.0001
    field T	 tolerance 0.01
    field "(k|epsilon|omega)"	 tolerance 0.001

Reading thermophysical properties

Reading field T

Reading field p_rgh

Reading field U

Reading/calculating face flux field phi

Selecting incompressible transport model Newtonian
Creating turbulence model

Selecting turbulence model type laminar
Selecting laminar stress model Stokes
Reading field alphat


Reading g

Reading hRef
Calculating field g.h

No MRF models present

Radiation model not active: radiationProperties not found
Selecting radiationModel none
No finite volume options present

Starting time loop

Time = 1

DILUPBiCGStab:  Solving for Ux, Initial residual = 0.414886, Final residual = 0.00174739, No Iterations 1
DILUPBiCGStab:  Solving for Uy, Initial residual = 0.266347, Final residual = 0.00251631, No Iterations 1
DILUPBiCGStab:  Solving for T, Initial residual = 1, Final residual = 0.0161476, No Iterations 1
DICPCG:  Solving for p_rgh, Initial residual = 1, Final residual = 0.0086189, No Iterations 28
time step continuity errors : sum local = 0.000274416, global = 8.11073e-20, cumulative = 8.11073e-20
ExecutionTime = 0.01 s  ClockTime = 0 s

Time = 2

DILUPBiCGStab:  Solving for Ux, Initial residual = 0.367987, Final residual = 0.00319443, No Iterations 1
DILUPBiCGStab:  Solving for Uy, Initial residual = 0.286227, Final residual = 0.00138547, No Iterations 1
DILUPBiCGStab:  Solving for T, Initial residual = 0.195736, Final residual = 0.00388187, No Iterations 1
DICPCG:  Solving for p_rgh, Initial residual = 0.409767, Final residual = 0.0031605, No Iterations 29
time step continuity errors : sum local = 0.000248578, global = 4.79765e-20, cumulative = 1.29084e-19
ExecutionTime = 0.02 s  ClockTime = 0 s

Time = 3

DILUPBiCGStab:  Solving for Ux, Initial residual = 0.261528, Final residual = 0.00246532, No Iterations 1
DILUPBiCGStab:  Solving for Uy, Initial residual = 0.0695147, Final residual = 0.000305059, No Iterations 1
DILUPBiCGStab:  Solving for T, Initial residual = 0.0997046, Final residual = 0.0022327, No Iterations 1
DICPCG:  Solving for p_rgh, Initial residual = 0.200722, Final residual = 0.00174614, No Iterations 29
time step continuity errors : sum local = 0.000195697, global = -3.15136e-20, cumulative = 9.75702e-20
ExecutionTime = 0.02 s  ClockTime = 0 s

Time = 4

DILUPBiCGStab:  Solving for Ux, Initial residual = 0.225541, Final residual = 0.00181334, No Iterations 1
DILUPBiCGStab:  Solving for Uy, Initial residual = 0.122656, Final residual = 0.000633183, No Iterations 1
DILUPBiCGStab:  Solving for T, Initial residual = 0.0629201, Final residual = 0.00146822, No Iterations 1
DICPCG:  Solving for p_rgh, Initial residual = 0.127099, Final residual = 0.000911133, No Iterations 29
time step continuity errors : sum local = 0.000116236, global = 7.22531e-21, cumulative = 1.04795e-19
ExecutionTime = 0.03 s  ClockTime = 0 s

Time = 5

DILUPBiCGStab:  Solving for Ux, Initial residual = 0.206995, Final residual = 0.00151396, No Iterations 1
DILUPBiCGStab:  Solving for Uy, Initial residual = 0.23538, Final residual = 0.00122275, No Iterations 1
DILUPBiCGStab:  Solving for T, Initial residual = 0.0446447, Final residual = 0.00101182, No Iterations 1
DICPCG:  Solving for p_rgh, Initial residual = 0.0966109, Final residual = 0.000524801, No Iterations 34
time step continuity errors : sum local = 6.84647e-05, global = -2.76912e-21, cumulative = 1.02026e-19
ExecutionTime = 0.03 s  ClockTime = 0 s

Time = 6

DILUPBiCGStab:  Solving for Ux, Initial residual = 0.16106, Final residual = 0.0010288, No Iterations 1
DILUPBiCGStab:  Solving for Uy, Initial residual = 0.157098, Final residual = 0.000714292, No Iterations 1
DILUPBiCGStab:  Solving for T, Initial residual = 0.0340407, Final residual = 0.000708041, No Iterations 1
DICPCG:  Solving for p_rgh, Initial residual = 0.107117, Final residual = 0.000940194, No Iterations 33
time step continuity errors : sum local = 0.000127695, global = -2.36521e-21, cumulative = 9.96611e-20
ExecutionTime = 0.04 s  ClockTime = 0 s

Time = 7

DILUPBiCGStab:  Solving for Ux, Initial residual = 0.113356, Final residual = 0.000673985, No Iterations 1
DILUPBiCGStab:  Solving for Uy, Initial residual = 0.0877391, Final residual = 0.000407416, No Iterations 1
DILUPBiCGStab:  Solving for T, Initial residual = 0.0273647, Final residual = 0.000507666, No Iterations 1
DICPCG:  Solving for p_rgh, Initial residual = 0.0968227, Final residual = 0.00086247, No Iterations 33
time step continuity errors : sum local = 0.000123942, global = 8.25121e-21, cumulative = 1.07912e-19
ExecutionTime = 0.05 s  ClockTime = 0 s

Time = 8

DILUPBiCGStab:  Solving for Ux, Initial residual = 0.0983421, Final residual = 0.000567715, No Iterations 1
DILUPBiCGStab:  Solving for Uy, Initial residual = 0.0613939, Final residual = 0.000269154, No Iterations 1
DILUPBiCGStab:  Solving for T, Initial residual = 0.0228058, Final residual = 0.00041245, No Iterations 1
DICPCG:  Solving for p_rgh, Initial residual = 0.0816444, Final residual = 0.000740918, No Iterations 33
time step continuity errors : sum local = 0.000112251, global = -3.29394e-20, cumulative = 7.49729e-20
ExecutionTime = 0.05 s  ClockTime = 0 s

Time = 9

DILUPBiCGStab:  Solving for Ux, Initial residual = 0.0828198, Final residual = 0.000449504, No Iterations 1
DILUPBiCGStab:  Solving for Uy, Initial residual = 0.0607659, Final residual = 0.000339825, No Iterations 1
DILUPBiCGStab:  Solving for T, Initial residual = 0.019537, Final residual = 0.000334581, No Iterations 1
DICPCG:  Solving for p_rgh, Initial residual = 0.0688164, Final residual = 0.000630671, No Iterations 33
time step continuity errors : sum local = 9.87377e-05, global = -8.84696e-21, cumulative = 6.6126e-20
ExecutionTime = 0.05 s  ClockTime = 0 s

Time = 10

DILUPBiCGStab:  Solving for Ux, Initial residual = 0.0712554, Final residual = 0.000362626, No Iterations 1
DILUPBiCGStab:  Solving for Uy, Initial residual = 0.0614374, Final residual = 0.000382623, No Iterations 1
DILUPBiCGStab:  Solving for T, Initial residual = 0.0170924, Final residual = 0.000271275, No Iterations 1
DICPCG:  Solving for p_rgh, Initial residual = 0.0635405, Final residual = 0.00058973, No Iterations 33
time step continuity errors : sum local = 9.42382e-05, global = 1.43593e-20, cumulative = 8.04853e-20
ExecutionTime = 0.06 s  ClockTime = 0 s

Time = 11

DILUPBiCGStab:  Solving for Ux, Initial residual = 0.0641508, Final residual = 0.000305961, No Iterations 1
DILUPBiCGStab:  Solving for Uy, Initial residual = 0.0585419, Final residual = 0.000365329, No Iterations 1
DILUPBiCGStab:  Solving for T, Initial residual = 0.0152231, Final residual = 0.000221461, No Iterations 1
DICPCG:  Solving for p_rgh, Initial residual = 0.0584225, Final residual = 0.000555613, No Iterations 33
time step continuity errors : sum local = 8.96551e-05, global = -7.1409e-22, cumulative = 7.97712e-20
ExecutionTime = 0.06 s  ClockTime = 0 s

Time = 12

DILUPBiCGStab:  Solving for Ux, Initial residual = 0.0594395, Final residual = 0.000270327, No Iterations 1
DILUPBiCGStab:  Solving for Uy, Initial residual = 0.0550761, Final residual = 0.000334023, No Iterations 1
DILUPBiCGStab:  Solving for T, Initial residual = 0.0137521, Final residual = 0.00018269, No Iterations 1
DICPCG:  Solving for p_rgh, Initial residual = 0.0533287, Final residual = 0.000403881, No Iterations 34
time step continuity errors : sum local = 6.53028e-05, global = -3.43409e-20, cumulative = 4.54303e-20
ExecutionTime = 0.07 s  ClockTime = 0 s

Time = 13

DILUPBiCGStab:  Solving for Ux, Initial residual = 0.0566335, Final residual = 0.000248881, No Iterations 1
DILUPBiCGStab:  Solving for Uy, Initial residual = 0.0529794, Final residual = 0.000303805, No Iterations 1
DILUPBiCGStab:  Solving for T, Initial residual = 0.0125649, Final residual = 0.000152583, No Iterations 1
DICPCG:  Solving for p_rgh, Initial residual = 0.0483968, Final residual = 0.000417382, No Iterations 34
time step continuity errors : sum local = 6.74514e-05, global = -4.46031e-20, cumulative = 8.27187e-22
ExecutionTime = 0.07 s  ClockTime = 0 s

Time = 14

DILUPBiCGStab:  Solving for Ux, Initial residual = 0.0512594, Final residual = 0.000217457, No Iterations 1
DILUPBiCGStab:  Solving for Uy, Initial residual = 0.0503664, Final residual = 0.00026918, No Iterations 1
DILUPBiCGStab:  Solving for T, Initial residual = 0.0115745, Final residual = 0.000129346, No Iterations 1
DICPCG:  Solving for p_rgh, Initial residual = 0.0451773, Final residual = 0.000425406, No Iterations 34
time step continuity errors : sum local = 6.85327e-05, global = 4.78311e-20, cumulative = 4.86583e-20
ExecutionTime = 0.07 s  ClockTime = 0 s

Time = 15

DILUPBiCGStab:  Solving for Ux, Initial residual = 0.0468291, Final residual = 0.000193285, No Iterations 1
DILUPBiCGStab:  Solving for Uy, Initial residual = 0.04794, Final residual = 0.000240509, No Iterations 1
DILUPBiCGStab:  Solving for T, Initial residual = 0.010735, Final residual = 0.000114057, No Iterations 1
DICPCG:  Solving for p_rgh, Initial residual = 0.0423132, Final residual = 0.000409121, No Iterations 34
time step continuity errors : sum local = 6.62468e-05, global = 1.51801e-20, cumulative = 6.38383e-20
ExecutionTime = 0.08 s  ClockTime = 0 s

Time = 16

DILUPBiCGStab:  Solving for Ux, Initial residual = 0.0438779, Final residual = 0.000175459, No Iterations 1
DILUPBiCGStab:  Solving for Uy, Initial residual = 0.0453876, Final residual = 0.000217019, No Iterations 1
DILUPBiCGStab:  Solving for T, Initial residual = 0.010012, Final residual = 0.000101033, No Iterations 1
DICPCG:  Solving for p_rgh, Initial residual = 0.0393582, Final residual = 0.000391018, No Iterations 34
time step continuity errors : sum local = 6.39289e-05, global = 7.73672e-20, cumulative = 1.41206e-19
ExecutionTime = 0.08 s  ClockTime = 0 s

Time = 17

DILUPBiCGStab:  Solving for Ux, Initial residual = 0.0415904, Final residual = 0.000159878, No Iterations 1
DILUPBiCGStab:  Solving for Uy, Initial residual = 0.0428934, Final residual = 0.000198305, No Iterations 1
DILUPBiCGStab:  Solving for T, Initial residual = 0.00939143, Final residual = 8.98775e-05, No Iterations 1
DICPCG:  Solving for p_rgh, Initial residual = 0.0363763, Final residual = 0.000244715, No Iterations 35
time step continuity errors : sum local = 4.04954e-05, global = -7.23783e-21, cumulative = 1.33968e-19
ExecutionTime = 0.08 s  ClockTime = 0 s

Time = 18

DILUPBiCGStab:  Solving for Ux, Initial residual = 0.0403509, Final residual = 0.000149642, No Iterations 1
DILUPBiCGStab:  Solving for Uy, Initial residual = 0.0407619, Final residual = 0.000182578, No Iterations 1
DILUPBiCGStab:  Solving for T, Initial residual = 0.00885299, Final residual = 8.03197e-05, No Iterations 1
DICPCG:  Solving for p_rgh, Initial residual = 0.0336018, Final residual = 0.000238992, No Iterations 35
time step continuity errors : sum local = 3.9901e-05, global = 1.88022e-20, cumulative = 1.5277e-19
ExecutionTime = 0.08 s  ClockTime = 0 s

Time = 19

DILUPBiCGStab:  Solving for Ux, Initial residual = 0.0374659, Final residual = 0.000134309, No Iterations 1
DILUPBiCGStab:  Solving for Uy, Initial residual = 0.0386622, Final residual = 0.000167424, No Iterations 1
DILUPBiCGStab:  Solving for T, Initial residual = 0.00838147, Final residual = 7.21134e-05, No Iterations 1
DICPCG:  Solving for p_rgh, Initial residual = 0.0312251, Final residual = 0.000229158, No Iterations 35
time step continuity errors : sum local = 3.85565e-05, global = -1.17679e-20, cumulative = 1.41002e-19
ExecutionTime = 0.09 s  ClockTime = 0 s

Time = 20

DILUPBiCGStab:  Solving for Ux, Initial residual = 0.035036, Final residual = 0.000121839, No Iterations 1
DILUPBiCGStab:  Solving for Uy, Initial residual = 0.0367167, Final residual = 0.000154062, No Iterations 1
DILUPBiCGStab:  Solving for T, Initial residual = 0.00796482, Final residual = 6.50749e-05, No Iterations 1
DICPCG:  Solving for p_rgh, Initial residual = 0.0300035, Final residual = 0.000220362, No Iterations 35
time step continuity errors : sum local = 3.72979e-05, global = -5.15243e-20, cumulative = 8.94777e-20
ExecutionTime = 0.09 s  ClockTime = 0 s

Time = 21

DILUPBiCGStab:  Solving for Ux, Initial residual = 0.0332671, Final residual = 0.000112154, No Iterations 1
DILUPBiCGStab:  Solving for Uy, Initial residual = 0.0348564, Final residual = 0.000141862, No Iterations 1
DILUPBiCGStab:  Solving for T, Initial residual = 0.00759353, Final residual = 5.90552e-05, No Iterations 1
DICPCG:  Solving for p_rgh, Initial residual = 0.0289472, Final residual = 0.000213546, No Iterations 35
time step continuity errors : sum local = 3.6294e-05, global = 5.21899e-20, cumulative = 1.41668e-19
ExecutionTime = 0.1 s  ClockTime = 0 s

Time = 22

DILUPBiCGStab:  Solving for Ux, Initial residual = 0.0317488, Final residual = 0.000103912, No Iterations 1
DILUPBiCGStab:  Solving for Uy, Initial residual = 0.0330958, Final residual = 0.000131125, No Iterations 1
DILUPBiCGStab:  Solving for T, Initial residual = 0.00725979, Final residual = 5.38978e-05, No Iterations 1
DICPCG:  Solving for p_rgh, Initial residual = 0.0278699, Final residual = 0.000207449, No Iterations 35
time step continuity errors : sum local = 3.53491e-05, global = -5.05178e-20, cumulative = 9.11498e-20
ExecutionTime = 0.1 s  ClockTime = 0 s

Time = 23

DILUPBiCGStab:  Solving for Ux, Initial residual = 0.0303112, Final residual = 9.64268e-05, No Iterations 1
DILUPBiCGStab:  Solving for Uy, Initial residual = 0.0315177, Final residual = 0.000121325, No Iterations 1
DILUPBiCGStab:  Solving for T, Initial residual = 0.00695391, Final residual = 4.95885e-05, No Iterations 1
DICPCG:  Solving for p_rgh, Initial residual = 0.0267705, Final residual = 0.000200605, No Iterations 35
time step continuity errors : sum local = 3.42298e-05, global = 4.36015e-20, cumulative = 1.34751e-19
ExecutionTime = 0.11 s  ClockTime = 0 s

Time = 24

DILUPBiCGStab:  Solving for Ux, Initial residual = 0.0289799, Final residual = 8.9615e-05, No Iterations 1
DILUPBiCGStab:  Solving for Uy, Initial residual = 0.0300821, Final residual = 0.00011259, No Iterations 1
DILUPBiCGStab:  Solving for T, Initial residual = 0.0066731, Final residual = 4.60906e-05, No Iterations 1
DICPCG:  Solving for p_rgh, Initial residual = 0.0256717, Final residual = 0.000192747, No Iterations 35
time step continuity errors : sum local = 3.29022e-05, global = -7.21263e-20, cumulative = 6.2625e-20
ExecutionTime = 0.12 s  ClockTime = 0 s

Time = 25

DILUPBiCGStab:  Solving for Ux, Initial residual = 0.0277969, Final residual = 8.38524e-05, No Iterations 1
DILUPBiCGStab:  Solving for Uy, Initial residual = 0.0287632, Final residual = 0.000104775, No Iterations 1
DILUPBiCGStab:  Solving for T, Initial residual = 0.00641435, Final residual = 4.29115e-05, No Iterations 1
DICPCG:  Solving for p_rgh, Initial residual = 0.0246253, Final residual = 0.000182589, No Iterations 35
time step continuity errors : sum local = 3.11588e-05, global = -5.53759e-20, cumulative = 7.24915e-21
ExecutionTime = 0.12 s  ClockTime = 0 s

Time = 26

DILUPBiCGStab:  Solving for Ux, Initial residual = 0.02671, Final residual = 7.8747e-05, No Iterations 1
DILUPBiCGStab:  Solving for Uy, Initial residual = 0.0275525, Final residual = 9.77875e-05, No Iterations 1
DILUPBiCGStab:  Solving for T, Initial residual = 0.00617807, Final residual = 4.003e-05, No Iterations 1
DICPCG:  Solving for p_rgh, Initial residual = 0.0238012, Final residual = 0.000166861, No Iterations 35
time step continuity errors : sum local = 2.84545e-05, global = -2.65215e-20, cumulative = -1.92723e-20
ExecutionTime = 0.12 s  ClockTime = 0 s

Time = 27

DILUPBiCGStab:  Solving for Ux, Initial residual = 0.0257044, Final residual = 7.38872e-05, No Iterations 1
DILUPBiCGStab:  Solving for Uy, Initial residual = 0.0264689, Final residual = 9.17437e-05, No Iterations 1
DILUPBiCGStab:  Solving for T, Initial residual = 0.00596146, Final residual = 3.74155e-05, No Iterations 1
DICPCG:  Solving for p_rgh, Initial residual = 0.023078, Final residual = 0.000228899, No Iterations 34
time step continuity errors : sum local = 3.91258e-05, global = -1.81075e-20, cumulative = -3.73798e-20
ExecutionTime = 0.13 s  ClockTime = 0 s

Time = 28

DILUPBiCGStab:  Solving for Ux, Initial residual = 0.0245189, Final residual = 6.90668e-05, No Iterations 1
DILUPBiCGStab:  Solving for Uy, Initial residual = 0.0255269, Final residual = 8.67905e-05, No Iterations 1
DILUPBiCGStab:  Solving for T, Initial residual = 0.00576217, Final residual = 3.50404e-05, No Iterations 1
DICPCG:  Solving for p_rgh, Initial residual = 0.0223431, Final residual = 0.000190722, No Iterations 33
time step continuity errors : sum local = 3.29688e-05, global = 3.96917e-20, cumulative = 2.31191e-21
ExecutionTime = 0.13 s  ClockTime = 0 s

Time = 29

DILUPBiCGStab:  Solving for Ux, Initial residual = 0.0237824, Final residual = 6.59303e-05, No Iterations 1
DILUPBiCGStab:  Solving for Uy, Initial residual = 0.0245636, Final residual = 8.11552e-05, No Iterations 1
DILUPBiCGStab:  Solving for T, Initial residual = 0.0055782, Final residual = 3.28807e-05, No Iterations 1
DICPCG:  Solving for p_rgh, Initial residual = 0.0214899, Final residual = 0.00018451, No Iterations 32
time step continuity errors : sum local = 3.19932e-05, global = -3.86965e-20, cumulative = -3.63846e-20
ExecutionTime = 0.14 s  ClockTime = 0 s

Time = 30

DILUPBiCGStab:  Solving for Ux, Initial residual = 0.0233852, Final residual = 6.25228e-05, No Iterations 1
DILUPBiCGStab:  Solving for Uy, Initial residual = 0.0237407, Final residual = 7.65713e-05, No Iterations 1
DILUPBiCGStab:  Solving for T, Initial residual = 0.00540786, Final residual = 3.09343e-05, No Iterations 1
DICPCG:  Solving for p_rgh, Initial residual = 0.0206614, Final residual = 0.00017694, No Iterations 32
time step continuity errors : sum local = 3.0816e-05, global = -5.07811e-20, cumulative = -8.71658e-20
ExecutionTime = 0.14 s  ClockTime = 0 s

Time = 31

DILUPBiCGStab:  Solving for Ux, Initial residual = 0.0222774, Final residual = 5.81974e-05, No Iterations 1
DILUPBiCGStab:  Solving for Uy, Initial residual = 0.022947, Final residual = 7.21619e-05, No Iterations 1
DILUPBiCGStab:  Solving for T, Initial residual = 0.00524963, Final residual = 2.91782e-05, No Iterations 1
DICPCG:  Solving for p_rgh, Initial residual = 0.0198775, Final residual = 0.000169519, No Iterations 32
time step continuity errors : sum local = 2.96558e-05, global = -1.24659e-20, cumulative = -9.96316e-20
ExecutionTime = 0.14 s  ClockTime = 0 s

Time = 32

DILUPBiCGStab:  Solving for Ux, Initial residual = 0.0212983, Final residual = 5.46042e-05, No Iterations 1
DILUPBiCGStab:  Solving for Uy, Initial residual = 0.0221861, Final residual = 6.79127e-05, No Iterations 1
DILUPBiCGStab:  Solving for T, Initial residual = 0.00510212, Final residual = 2.75742e-05, No Iterations 1
DICPCG:  Solving for p_rgh, Initial residual = 0.0191176, Final residual = 0.000144082, No Iterations 32
time step continuity errors : sum local = 2.52729e-05, global = -2.71289e-20, cumulative = -1.26761e-19
ExecutionTime = 0.15 s  ClockTime = 0 s

Time = 33

DILUPBiCGStab:  Solving for Ux, Initial residual = 0.0206952, Final residual = 5.20072e-05, No Iterations 1
DILUPBiCGStab:  Solving for Uy, Initial residual = 0.0214607, Final residual = 6.41984e-05, No Iterations 1
DILUPBiCGStab:  Solving for T, Initial residual = 0.0049641, Final residual = 2.61066e-05, No Iterations 1
DICPCG:  Solving for p_rgh, Initial residual = 0.0184071, Final residual = 0.000132748, No Iterations 32
time step continuity errors : sum local = 2.33408e-05, global = -6.70146e-20, cumulative = -1.93775e-19
ExecutionTime = 0.15 s  ClockTime = 0 s

Time = 34

DILUPBiCGStab:  Solving for Ux, Initial residual = 0.0200905, Final residual = 4.95415e-05, No Iterations 1
DILUPBiCGStab:  Solving for Uy, Initial residual = 0.0207791, Final residual = 6.08642e-05, No Iterations 1
DILUPBiCGStab:  Solving for T, Initial residual = 0.00483449, Final residual = 2.47633e-05, No Iterations 1
DICPCG:  Solving for p_rgh, Initial residual = 0.0178775, Final residual = 0.000118271, No Iterations 32
time step continuity errors : sum local = 2.08035e-05, global = -1.92126e-20, cumulative = -2.12988e-19
ExecutionTime = 0.16 s  ClockTime = 0 s

Time = 35

DILUPBiCGStab:  Solving for Ux, Initial residual = 0.0194757, Final residual = 4.71152e-05, No Iterations 1
DILUPBiCGStab:  Solving for Uy, Initial residual = 0.0201395, Final residual = 5.78142e-05, No Iterations 1
DILUPBiCGStab:  Solving for T, Initial residual = 0.00471198, Final residual = 2.36088e-05, No Iterations 1
DICPCG:  Solving for p_rgh, Initial residual = 0.0173823, Final residual = 0.000110751, No Iterations 32
time step continuity errors : sum local = 1.94925e-05, global = -2.09315e-19, cumulative = -4.22303e-19
ExecutionTime = 0.16 s  ClockTime = 0 s

Time = 36

DILUPBiCGStab:  Solving for Ux, Initial residual = 0.0188561, Final residual = 4.4795e-05, No Iterations 1
DILUPBiCGStab:  Solving for Uy, Initial residual = 0.0195327, Final residual = 5.49082e-05, No Iterations 1
DILUPBiCGStab:  Solving for T, Initial residual = 0.00459485, Final residual = 2.2547e-05, No Iterations 1
DICPCG:  Solving for p_rgh, Initial residual = 0.0169019, Final residual = 0.00016749, No Iterations 31
time step continuity errors : sum local = 2.95736e-05, global = -9.93396e-20, cumulative = -5.21643e-19
ExecutionTime = 0.16 s  ClockTime = 0 s

Time = 37

DILUPBiCGStab:  Solving for Ux, Initial residual = 0.0183626, Final residual = 4.30839e-05, No Iterations 1
DILUPBiCGStab:  Solving for Uy, Initial residual = 0.0189615, Final residual = 5.23197e-05, No Iterations 1
DILUPBiCGStab:  Solving for T, Initial residual = 0.00448311, Final residual = 2.15507e-05, No Iterations 1
DICPCG:  Solving for p_rgh, Initial residual = 0.0164505, Final residual = 0.000163488, No Iterations 31
time step continuity errors : sum local = 2.88371e-05, global = -2.16695e-19, cumulative = -7.38338e-19
ExecutionTime = 0.17 s  ClockTime = 0 s

Time = 38

DILUPBiCGStab:  Solving for Ux, Initial residual = 0.0177635, Final residual = 4.084e-05, No Iterations 1
DILUPBiCGStab:  Solving for Uy, Initial residual = 0.018421, Final residual = 4.97652e-05, No Iterations 1
DILUPBiCGStab:  Solving for T, Initial residual = 0.00437724, Final residual = 2.06156e-05, No Iterations 1
DICPCG:  Solving for p_rgh, Initial residual = 0.0159901, Final residual = 9.97249e-05, No Iterations 32
time step continuity errors : sum local = 1.755e-05, global = 4.74336e-21, cumulative = -7.33595e-19
ExecutionTime = 0.17 s  ClockTime = 0 s

Time = 39

DILUPBiCGStab:  Solving for Ux, Initial residual = 0.0171639, Final residual = 3.86403e-05, No Iterations 1
DILUPBiCGStab:  Solving for Uy, Initial residual = 0.0179514, Final residual = 4.75349e-05, No Iterations 1
DILUPBiCGStab:  Solving for T, Initial residual = 0.00427728, Final residual = 1.97397e-05, No Iterations 1
DICPCG:  Solving for p_rgh, Initial residual = 0.0155097, Final residual = 9.75787e-05, No Iterations 32
time step continuity errors : sum local = 1.72283e-05, global = 4.30387e-20, cumulative = -6.90556e-19
ExecutionTime = 0.18 s  ClockTime = 0 s

Time = 40

DILUPBiCGStab:  Solving for Ux, Initial residual = 0.016727, Final residual = 3.71398e-05, No Iterations 1
DILUPBiCGStab:  Solving for Uy, Initial residual = 0.0174687, Final residual = 4.52313e-05, No Iterations 1
DILUPBiCGStab:  Solving for T, Initial residual = 0.00418274, Final residual = 1.89229e-05, No Iterations 1
DICPCG:  Solving for p_rgh, Initial residual = 0.0150808, Final residual = 9.88877e-05, No Iterations 32
time step continuity errors : sum local = 1.74989e-05, global = 1.44136e-19, cumulative = -5.4642e-19
ExecutionTime = 0.18 s  ClockTime = 0 s

Time = 41

DILUPBiCGStab:  Solving for Ux, Initial residual = 0.0163162, Final residual = 3.57321e-05, No Iterations 1
DILUPBiCGStab:  Solving for Uy, Initial residual = 0.0170069, Final residual = 4.31306e-05, No Iterations 1
DILUPBiCGStab:  Solving for T, Initial residual = 0.00409321, Final residual = 1.81647e-05, No Iterations 1
DICPCG:  Solving for p_rgh, Initial residual = 0.0146633, Final residual = 0.000104526, No Iterations 32
time step continuity errors : sum local = 1.85437e-05, global = -5.58347e-20, cumulative = -6.02255e-19
ExecutionTime = 0.18 s  ClockTime = 0 s

Time = 42

DILUPBiCGStab:  Solving for Ux, Initial residual = 0.0158798, Final residual = 3.42775e-05, No Iterations 1
DILUPBiCGStab:  Solving for Uy, Initial residual = 0.016587, Final residual = 4.12679e-05, No Iterations 1
DILUPBiCGStab:  Solving for T, Initial residual = 0.00400829, Final residual = 1.74533e-05, No Iterations 1
DICPCG:  Solving for p_rgh, Initial residual = 0.0142926, Final residual = 0.000108711, No Iterations 32
time step continuity errors : sum local = 1.93177e-05, global = 3.17907e-21, cumulative = -5.99076e-19
ExecutionTime = 0.19 s  ClockTime = 0 s

Time = 43

DILUPBiCGStab:  Solving for Ux, Initial residual = 0.0154667, Final residual = 3.28373e-05, No Iterations 1
DILUPBiCGStab:  Solving for Uy, Initial residual = 0.0161852, Final residual = 3.95465e-05, No Iterations 1
DILUPBiCGStab:  Solving for T, Initial residual = 0.00392764, Final residual = 1.67858e-05, No Iterations 1
DICPCG:  Solving for p_rgh, Initial residual = 0.013979, Final residual = 0.000114953, No Iterations 32
time step continuity errors : sum local = 2.04881e-05, global = 3.00422e-19, cumulative = -2.98654e-19
ExecutionTime = 0.19 s  ClockTime = 0 s

Time = 44

DILUPBiCGStab:  Solving for Ux, Initial residual = 0.015075, Final residual = 3.14942e-05, No Iterations 1
DILUPBiCGStab:  Solving for Uy, Initial residual = 0.015804, Final residual = 3.79457e-05, No Iterations 1
DILUPBiCGStab:  Solving for T, Initial residual = 0.00385093, Final residual = 1.61596e-05, No Iterations 1
DICPCG:  Solving for p_rgh, Initial residual = 0.0136528, Final residual = 0.000119375, No Iterations 32
time step continuity errors : sum local = 2.13432e-05, global = 6.05391e-20, cumulative = -2.38115e-19
ExecutionTime = 0.2 s  ClockTime = 0 s

Time = 45

DILUPBiCGStab:  Solving for Ux, Initial residual = 0.0147104, Final residual = 3.02917e-05, No Iterations 1
DILUPBiCGStab:  Solving for Uy, Initial residual = 0.0154322, Final residual = 3.64043e-05, No Iterations 1
DILUPBiCGStab:  Solving for T, Initial residual = 0.0037779, Final residual = 1.55708e-05, No Iterations 1
DICPCG:  Solving for p_rgh, Initial residual = 0.0133097, Final residual = 0.00012763, No Iterations 32
time step continuity errors : sum local = 2.28921e-05, global = 1.30564e-19, cumulative = -1.07551e-19
ExecutionTime = 0.2 s  ClockTime = 0 s

Time = 46

DILUPBiCGStab:  Solving for Ux, Initial residual = 0.0143504, Final residual = 2.9149e-05, No Iterations 1
DILUPBiCGStab:  Solving for Uy, Initial residual = 0.0150725, Final residual = 3.49421e-05, No Iterations 1
DILUPBiCGStab:  Solving for T, Initial residual = 0.00370828, Final residual = 1.50167e-05, No Iterations 1
DICPCG:  Solving for p_rgh, Initial residual = 0.0129728, Final residual = 9.5667e-05, No Iterations 33
time step continuity errors : sum local = 1.71148e-05, global = 1.50586e-19, cumulative = 4.30344e-20
ExecutionTime = 0.2 s  ClockTime = 0 s

Time = 47

DILUPBiCGStab:  Solving for Ux, Initial residual = 0.0140586, Final residual = 2.82433e-05, No Iterations 1
DILUPBiCGStab:  Solving for Uy, Initial residual = 0.0147228, Final residual = 3.35337e-05, No Iterations 1
DILUPBiCGStab:  Solving for T, Initial residual = 0.00364181, Final residual = 1.44951e-05, No Iterations 1
DICPCG:  Solving for p_rgh, Initial residual = 0.0126368, Final residual = 0.000120738, No Iterations 33
time step continuity errors : sum local = 2.16183e-05, global = 4.88299e-20, cumulative = 9.18644e-20
ExecutionTime = 0.21 s  ClockTime = 0 s

Time = 48

DILUPBiCGStab:  Solving for Ux, Initial residual = 0.0136847, Final residual = 2.71386e-05, No Iterations 1
DILUPBiCGStab:  Solving for Uy, Initial residual = 0.0143969, Final residual = 3.22605e-05, No Iterations 1
DILUPBiCGStab:  Solving for T, Initial residual = 0.00357826, Final residual = 1.40038e-05, No Iterations 1
DICPCG:  Solving for p_rgh, Initial residual = 0.012322, Final residual = 0.000116859, No Iterations 34
time step continuity errors : sum local = 2.10622e-05, global = 5.41537e-20, cumulative = 1.46018e-19
ExecutionTime = 0.21 s  ClockTime = 0 s

Time = 49

DILUPBiCGStab:  Solving for Ux, Initial residual = 0.0134774, Final residual = 2.65599e-05, No Iterations 1
DILUPBiCGStab:  Solving for Uy, Initial residual = 0.0140574, Final residual = 3.11356e-05, No Iterations 1
DILUPBiCGStab:  Solving for T, Initial residual = 0.00351735, Final residual = 1.35413e-05, No Iterations 1
DICPCG:  Solving for p_rgh, Initial residual = 0.0120131, Final residual = 8.26732e-05, No Iterations 35
time step continuity errors : sum local = 1.49591e-05, global = -1.7429e-19, cumulative = -2.82715e-20
ExecutionTime = 0.22 s  ClockTime = 0 s

Time = 50

DILUPBiCGStab:  Solving for Ux, Initial residual = 0.0132021, Final residual = 2.5482e-05, No Iterations 1
DILUPBiCGStab:  Solving for Uy, Initial residual = 0.0137488, Final residual = 2.99741e-05, No Iterations 1
DILUPBiCGStab:  Solving for T, Initial residual = 0.00345889, Final residual = 1.3126e-05, No Iterations 1
DICPCG:  Solving for p_rgh, Initial residual = 0.0117079, Final residual = 8.29474e-05, No Iterations 35
time step continuity errors : sum local = 1.50286e-05, global = 1.37785e-20, cumulative = -1.4493e-20
ExecutionTime = 0.22 s  ClockTime = 0 s

Time = 51

DILUPBiCGStab:  Solving for Ux, Initial residual = 0.0127975, Final residual = 2.43916e-05, No Iterations 1
DILUPBiCGStab:  Solving for Uy, Initial residual = 0.0134641, Final residual = 2.88403e-05, No Iterations 1
DILUPBiCGStab:  Solving for T, Initial residual = 0.00340266, Final residual = 1.27362e-05, No Iterations 1
DICPCG:  Solving for p_rgh, Initial residual = 0.0114333, Final residual = 8.12187e-05, No Iterations 35
time step continuity errors : sum local = 1.47389e-05, global = 1.651e-19, cumulative = 1.50607e-19
ExecutionTime = 0.22 s  ClockTime = 0 s

Time = 52

DILUPBiCGStab:  Solving for Ux, Initial residual = 0.0124716, Final residual = 2.35323e-05, No Iterations 1
DILUPBiCGStab:  Solving for Uy, Initial residual = 0.0131807, Final residual = 2.77734e-05, No Iterations 1
DILUPBiCGStab:  Solving for T, Initial residual = 0.00334844, Final residual = 1.23673e-05, No Iterations 1
DICPCG:  Solving for p_rgh, Initial residual = 0.0112191, Final residual = 7.92628e-05, No Iterations 35
time step continuity errors : sum local = 1.44039e-05, global = -7.48211e-20, cumulative = 7.5786e-20
ExecutionTime = 0.23 s  ClockTime = 0 s

Time = 53

DILUPBiCGStab:  Solving for Ux, Initial residual = 0.0122128, Final residual = 2.2781e-05, No Iterations 1
DILUPBiCGStab:  Solving for Uy, Initial residual = 0.0128976, Final residual = 2.67723e-05, No Iterations 1
DILUPBiCGStab:  Solving for T, Initial residual = 0.00329572, Final residual = 1.20123e-05, No Iterations 1
DICPCG:  Solving for p_rgh, Initial residual = 0.0110322, Final residual = 7.75492e-05, No Iterations 35
time step continuity errors : sum local = 1.4107e-05, global = 1.34675e-19, cumulative = 2.10461e-19
ExecutionTime = 0.23 s  ClockTime = 0 s

Time = 54

DILUPBiCGStab:  Solving for Ux, Initial residual = 0.0119607, Final residual = 2.20464e-05, No Iterations 1
DILUPBiCGStab:  Solving for Uy, Initial residual = 0.0126272, Final residual = 2.58562e-05, No Iterations 1
DILUPBiCGStab:  Solving for T, Initial residual = 0.00324455, Final residual = 1.1672e-05, No Iterations 1
DICPCG:  Solving for p_rgh, Initial residual = 0.0108479, Final residual = 7.5827e-05, No Iterations 35
time step continuity errors : sum local = 1.38043e-05, global = -1.73966e-19, cumulative = 3.6495e-20
ExecutionTime = 0.24 s  ClockTime = 0 s

Time = 55

DILUPBiCGStab:  Solving for Ux, Initial residual = 0.0117053, Final residual = 2.13356e-05, No Iterations 1
DILUPBiCGStab:  Solving for Uy, Initial residual = 0.0123697, Final residual = 2.49925e-05, No Iterations 1
DILUPBiCGStab:  Solving for T, Initial residual = 0.00319473, Final residual = 1.13447e-05, No Iterations 1
DICPCG:  Solving for p_rgh, Initial residual = 0.0106639, Final residual = 7.39498e-05, No Iterations 35
time step continuity errors : sum local = 1.34706e-05, global = -1.38852e-19, cumulative = -1.02357e-19
ExecutionTime = 0.24 s  ClockTime = 0 s

Time = 56

DILUPBiCGStab:  Solving for Ux, Initial residual = 0.0114556, Final residual = 2.06582e-05, No Iterations 1
DILUPBiCGStab:  Solving for Uy, Initial residual = 0.0121241, Final residual = 2.41678e-05, No Iterations 1
DILUPBiCGStab:  Solving for T, Initial residual = 0.0031468, Final residual = 1.10317e-05, No Iterations 1
DICPCG:  Solving for p_rgh, Initial residual = 0.0104806, Final residual = 7.19658e-05, No Iterations 35
time step continuity errors : sum local = 1.31152e-05, global = 3.89163e-20, cumulative = -6.34404e-20
ExecutionTime = 0.24 s  ClockTime = 0 s

Time = 57

DILUPBiCGStab:  Solving for Ux, Initial residual = 0.0112219, Final residual = 2.0013e-05, No Iterations 1
DILUPBiCGStab:  Solving for Uy, Initial residual = 0.0118889, Final residual = 2.33828e-05, No Iterations 1
DILUPBiCGStab:  Solving for T, Initial residual = 0.00310065, Final residual = 1.07323e-05, No Iterations 1
DICPCG:  Solving for p_rgh, Initial residual = 0.0102983, Final residual = 6.99452e-05, No Iterations 35
time step continuity errors : sum local = 1.27507e-05, global = 1.14771e-19, cumulative = 5.13309e-20
ExecutionTime = 0.25 s  ClockTime = 0 s

Time = 58

DILUPBiCGStab:  Solving for Ux, Initial residual = 0.0109973, Final residual = 1.94133e-05, No Iterations 1
DILUPBiCGStab:  Solving for Uy, Initial residual = 0.0116631, Final residual = 2.26247e-05, No Iterations 1
DILUPBiCGStab:  Solving for T, Initial residual = 0.00305621, Final residual = 1.0446e-05, No Iterations 1
DICPCG:  Solving for p_rgh, Initial residual = 0.0101172, Final residual = 6.79068e-05, No Iterations 35
time step continuity errors : sum local = 1.23809e-05, global = 1.26145e-19, cumulative = 1.77476e-19
ExecutionTime = 0.25 s  ClockTime = 0 s

Time = 59

DILUPBiCGStab:  Solving for Ux, Initial residual = 0.0107806, Final residual = 1.88431e-05, No Iterations 1
DILUPBiCGStab:  Solving for Uy, Initial residual = 0.011445, Final residual = 2.18983e-05, No Iterations 1
DILUPBiCGStab:  Solving for T, Initial residual = 0.00301336, Final residual = 1.01725e-05, No Iterations 1
DICPCG:  Solving for p_rgh, Initial residual = 0.00993898, Final residual = 6.58638e-05, No Iterations 35
time step continuity errors : sum local = 1.20086e-05, global = -4.27678e-20, cumulative = 1.34708e-19
ExecutionTime = 0.26 s  ClockTime = 0 s

Time = 60

DILUPBiCGStab:  Solving for Ux, Initial residual = 0.0105712, Final residual = 1.82949e-05, No Iterations 1
DILUPBiCGStab:  Solving for Uy, Initial residual = 0.0112341, Final residual = 2.12161e-05, No Iterations 1
DILUPBiCGStab:  Solving for T, Initial residual = 0.00297203, Final residual = 9.91105e-06, No Iterations 1
DICPCG:  Solving for p_rgh, Initial residual = 0.00976508, Final residual = 6.38157e-05, No Iterations 35
time step continuity errors : sum local = 1.16343e-05, global = -1.1619e-19, cumulative = 1.85183e-20
ExecutionTime = 0.26 s  ClockTime = 0 s

Time = 61

DILUPBiCGStab:  Solving for Ux, Initial residual = 0.0103696, Final residual = 1.77633e-05, No Iterations 1
DILUPBiCGStab:  Solving for Uy, Initial residual = 0.0110297, Final residual = 2.05679e-05, No Iterations 1
DILUPBiCGStab:  Solving for T, Initial residual = 0.00293214, Final residual = 9.66085e-06, No Iterations 1
DICPCG:  Solving for p_rgh, Initial residual = 0.00959733, Final residual = 6.1779e-05, No Iterations 35
time step continuity errors : sum local = 1.12619e-05, global = 1.32097e-19, cumulative = 1.50615e-19
ExecutionTime = 0.27 s  ClockTime = 0 s

Time = 62

DILUPBiCGStab:  Solving for Ux, Initial residual = 0.010173, Final residual = 1.72526e-05, No Iterations 1
DILUPBiCGStab:  Solving for Uy, Initial residual = 0.0108328, Final residual = 1.99474e-05, No Iterations 1
DILUPBiCGStab:  Solving for T, Initial residual = 0.00289362, Final residual = 9.42125e-06, No Iterations 1
DICPCG:  Solving for p_rgh, Initial residual = 0.00943513, Final residual = 9.37489e-05, No Iterations 34
time step continuity errors : sum local = 1.70477e-05, global = -3.99528e-19, cumulative = -2.48913e-19
ExecutionTime = 0.27 s  ClockTime = 0 s

Time = 63

DILUPBiCGStab:  Solving for Ux, Initial residual = 0.00993122, Final residual = 1.6856e-05, No Iterations 1
DILUPBiCGStab:  Solving for Uy, Initial residual = 0.010646, Final residual = 1.93778e-05, No Iterations 1
DILUPBiCGStab:  Solving for T, Initial residual = 0.00285639, Final residual = 9.19412e-06, No Iterations 1
DICPCG:  Solving for p_rgh, Initial residual = 0.00929285, Final residual = 8.9177e-05, No Iterations 34
time step continuity errors : sum local = 1.62182e-05, global = -1.38436e-19, cumulative = -3.87349e-19
ExecutionTime = 0.27 s  ClockTime = 0 s

Time = 64

DILUPBiCGStab:  Solving for Ux, Initial residual = 0.00978389, Final residual = 1.63497e-05, No Iterations 1
DILUPBiCGStab:  Solving for Uy, Initial residual = 0.0104571, Final residual = 1.88058e-05, No Iterations 1
DILUPBiCGStab:  Solving for T, Initial residual = 0.00282039, Final residual = 8.9776e-06, No Iterations 1
DICPCG:  Solving for p_rgh, Initial residual = 0.00915507, Final residual = 8.53697e-05, No Iterations 34
time step continuity errors : sum local = 1.55389e-05, global = 1.13169e-19, cumulative = -2.74181e-19
ExecutionTime = 0.28 s  ClockTime = 0 s

Time = 65

DILUPBiCGStab:  Solving for Ux, Initial residual = 0.00962735, Final residual = 1.58723e-05, No Iterations 1
DILUPBiCGStab:  Solving for Uy, Initial residual = 0.0102743, Final residual = 1.82729e-05, No Iterations 1
DILUPBiCGStab:  Solving for T, Initial residual = 0.00278556, Final residual = 8.76996e-06, No Iterations 1
DICPCG:  Solving for p_rgh, Initial residual = 0.00900879, Final residual = 8.20749e-05, No Iterations 34
time step continuity errors : sum local = 1.49642e-05, global = 1.4926e-19, cumulative = -1.24921e-19
ExecutionTime = 0.28 s  ClockTime = 0 s

Time = 66

DILUPBiCGStab:  Solving for Ux, Initial residual = 0.00944556, Final residual = 1.54473e-05, No Iterations 1
DILUPBiCGStab:  Solving for Uy, Initial residual = 0.0100974, Final residual = 1.77563e-05, No Iterations 1
DILUPBiCGStab:  Solving for T, Initial residual = 0.00275185, Final residual = 8.57087e-06, No Iterations 1
DICPCG:  Solving for p_rgh, Initial residual = 0.00886323, Final residual = 7.88991e-05, No Iterations 34
time step continuity errors : sum local = 1.44092e-05, global = -5.49041e-20, cumulative = -1.79825e-19
ExecutionTime = 0.28 s  ClockTime = 0 s

Time = 67

DILUPBiCGStab:  Solving for Ux, Initial residual = 0.00926557, Final residual = 1.50503e-05, No Iterations 1
DILUPBiCGStab:  Solving for Uy, Initial residual = 0.00992584, Final residual = 1.72573e-05, No Iterations 1
DILUPBiCGStab:  Solving for T, Initial residual = 0.0027192, Final residual = 8.38004e-06, No Iterations 1
DICPCG:  Solving for p_rgh, Initial residual = 0.00871906, Final residual = 7.56611e-05, No Iterations 34
time step continuity errors : sum local = 1.3839e-05, global = -1.1192e-20, cumulative = -1.91017e-19
ExecutionTime = 0.29 s  ClockTime = 0 s

Time = 68

DILUPBiCGStab:  Solving for Ux, Initial residual = 0.00909708, Final residual = 1.4668e-05, No Iterations 1
DILUPBiCGStab:  Solving for Uy, Initial residual = 0.00975768, Final residual = 1.67888e-05, No Iterations 1
DILUPBiCGStab:  Solving for T, Initial residual = 0.00268756, Final residual = 8.19849e-06, No Iterations 1
DICPCG:  Solving for p_rgh, Initial residual = 0.00857651, Final residual = 7.23938e-05, No Iterations 34
time step continuity errors : sum local = 1.32597e-05, global = -3.88387e-20, cumulative = -2.29856e-19
ExecutionTime = 0.29 s  ClockTime = 0 s

Time = 69

DILUPBiCGStab:  Solving for Ux, Initial residual = 0.00893527, Final residual = 1.42922e-05, No Iterations 1
DILUPBiCGStab:  Solving for Uy, Initial residual = 0.0095935, Final residual = 1.63395e-05, No Iterations 1
DILUPBiCGStab:  Solving for T, Initial residual = 0.00265688, Final residual = 8.02995e-06, No Iterations 1
DICPCG:  Solving for p_rgh, Initial residual = 0.0084358, Final residual = 6.91478e-05, No Iterations 34
time step continuity errors : sum local = 1.26809e-05, global = 6.81778e-20, cumulative = -1.61678e-19
ExecutionTime = 0.3 s  ClockTime = 0 s

Time = 70

DILUPBiCGStab:  Solving for Ux, Initial residual = 0.00877778, Final residual = 1.39259e-05, No Iterations 1
DILUPBiCGStab:  Solving for Uy, Initial residual = 0.00943346, Final residual = 1.59033e-05, No Iterations 1
DILUPBiCGStab:  Solving for T, Initial residual = 0.00262711, Final residual = 7.8672e-06, No Iterations 1
DICPCG:  Solving for p_rgh, Initial residual = 0.00829723, Final residual = 8.24253e-05, No Iterations 33
time step continuity errors : sum local = 1.5043e-05, global = 6.17284e-20, cumulative = -9.99495e-20
ExecutionTime = 0.3 s  ClockTime = 0 s

Time = 71

DILUPBiCGStab:  Solving for Ux, Initial residual = 0.00858794, Final residual = 1.35074e-05, No Iterations 1
DILUPBiCGStab:  Solving for Uy, Initial residual = 0.00928522, Final residual = 1.54401e-05, No Iterations 1
DILUPBiCGStab:  Solving for T, Initial residual = 0.00259819, Final residual = 7.70973e-06, No Iterations 1
DICPCG:  Solving for p_rgh, Initial residual = 0.00816162, Final residual = 8.00582e-05, No Iterations 33
time step continuity errors : sum local = 1.46317e-05, global = -1.30707e-19, cumulative = -2.30657e-19
ExecutionTime = 0.3 s  ClockTime = 0 s

Time = 72

DILUPBiCGStab:  Solving for Ux, Initial residual = 0.00846877, Final residual = 1.32154e-05, No Iterations 1
DILUPBiCGStab:  Solving for Uy, Initial residual = 0.00912892, Final residual = 1.50613e-05, No Iterations 1
DILUPBiCGStab:  Solving for T, Initial residual = 0.00257006, Final residual = 7.55728e-06, No Iterations 1
DICPCG:  Solving for p_rgh, Initial residual = 0.00803229, Final residual = 7.67476e-05, No Iterations 33
time step continuity errors : sum local = 1.404e-05, global = -7.48534e-20, cumulative = -3.0551e-19
ExecutionTime = 0.31 s  ClockTime = 0 s

Time = 73

DILUPBiCGStab:  Solving for Ux, Initial residual = 0.00834459, Final residual = 1.29374e-05, No Iterations 1
DILUPBiCGStab:  Solving for Uy, Initial residual = 0.00897673, Final residual = 1.46915e-05, No Iterations 1
DILUPBiCGStab:  Solving for T, Initial residual = 0.00254267, Final residual = 7.40958e-06, No Iterations 1
DICPCG:  Solving for p_rgh, Initial residual = 0.00790704, Final residual = 7.32041e-05, No Iterations 33
time step continuity errors : sum local = 1.34027e-05, global = -7.14671e-20, cumulative = -3.76977e-19
ExecutionTime = 0.31 s  ClockTime = 0 s

Time = 74

DILUPBiCGStab:  Solving for Ux, Initial residual = 0.00820088, Final residual = 1.26277e-05, No Iterations 1
DILUPBiCGStab:  Solving for Uy, Initial residual = 0.00883099, Final residual = 1.43164e-05, No Iterations 1
DILUPBiCGStab:  Solving for T, Initial residual = 0.00251598, Final residual = 7.26642e-06, No Iterations 1
DICPCG:  Solving for p_rgh, Initial residual = 0.00778856, Final residual = 6.98945e-05, No Iterations 33
time step continuity errors : sum local = 1.2806e-05, global = -1.73346e-19, cumulative = -5.50323e-19
ExecutionTime = 0.32 s  ClockTime = 0 s

Time = 75

DILUPBiCGStab:  Solving for Ux, Initial residual = 0.00805701, Final residual = 1.2321e-05, No Iterations 1
DILUPBiCGStab:  Solving for Uy, Initial residual = 0.00869083, Final residual = 1.39499e-05, No Iterations 1
DILUPBiCGStab:  Solving for T, Initial residual = 0.00248994, Final residual = 7.12824e-06, No Iterations 1
DICPCG:  Solving for p_rgh, Initial residual = 0.00768495, Final residual = 6.68045e-05, No Iterations 33
time step continuity errors : sum local = 1.22475e-05, global = -5.9893e-20, cumulative = -6.10216e-19
ExecutionTime = 0.32 s  ClockTime = 0 s

Time = 76

DILUPBiCGStab:  Solving for Ux, Initial residual = 0.00792314, Final residual = 1.20345e-05, No Iterations 1
DILUPBiCGStab:  Solving for Uy, Initial residual = 0.00855398, Final residual = 1.36017e-05, No Iterations 1
DILUPBiCGStab:  Solving for T, Initial residual = 0.0024645, Final residual = 6.9955e-06, No Iterations 1
DICPCG:  Solving for p_rgh, Initial residual = 0.00758626, Final residual = 6.38179e-05, No Iterations 33
time step continuity errors : sum local = 1.17061e-05, global = -1.8209e-19, cumulative = -7.92306e-19
ExecutionTime = 0.32 s  ClockTime = 0 s

Time = 77

DILUPBiCGStab:  Solving for Ux, Initial residual = 0.00779596, Final residual = 1.17628e-05, No Iterations 1
DILUPBiCGStab:  Solving for Uy, Initial residual = 0.00841947, Final residual = 1.32699e-05, No Iterations 1
DILUPBiCGStab:  Solving for T, Initial residual = 0.00243957, Final residual = 6.86646e-06, No Iterations 1
DICPCG:  Solving for p_rgh, Initial residual = 0.0074883, Final residual = 6.08982e-05, No Iterations 33
time step continuity errors : sum local = 1.11754e-05, global = -4.85323e-19, cumulative = -1.27763e-18
ExecutionTime = 0.33 s  ClockTime = 0 s

Time = 78

DILUPBiCGStab:  Solving for Ux, Initial residual = 0.00767, Final residual = 1.15012e-05, No Iterations 1
DILUPBiCGStab:  Solving for Uy, Initial residual = 0.0082878, Final residual = 1.29503e-05, No Iterations 1
DILUPBiCGStab:  Solving for T, Initial residual = 0.002415, Final residual = 6.74083e-06, No Iterations 1
DICPCG:  Solving for p_rgh, Initial residual = 0.00739105, Final residual = 5.80913e-05, No Iterations 33
time step continuity errors : sum local = 1.0664e-05, global = -3.71682e-20, cumulative = -1.3148e-18
ExecutionTime = 0.33 s  ClockTime = 0 s

Time = 79

DILUPBiCGStab:  Solving for Ux, Initial residual = 0.00754581, Final residual = 1.1245e-05, No Iterations 1
DILUPBiCGStab:  Solving for Uy, Initial residual = 0.00815962, Final residual = 1.26399e-05, No Iterations 1
DILUPBiCGStab:  Solving for T, Initial residual = 0.0023909, Final residual = 6.61874e-06, No Iterations 1
DICPCG:  Solving for p_rgh, Initial residual = 0.00729439, Final residual = 5.54035e-05, No Iterations 33
time step continuity errors : sum local = 1.01735e-05, global = 1.63756e-19, cumulative = -1.15104e-18
ExecutionTime = 0.35 s  ClockTime = 0 s

Time = 80

DILUPBiCGStab:  Solving for Ux, Initial residual = 0.0074257, Final residual = 1.10014e-05, No Iterations 1
DILUPBiCGStab:  Solving for Uy, Initial residual = 0.00803389, Final residual = 1.23396e-05, No Iterations 1
DILUPBiCGStab:  Solving for T, Initial residual = 0.00236731, Final residual = 6.5003e-06, No Iterations 1
DICPCG:  Solving for p_rgh, Initial residual = 0.00719836, Final residual = 5.28483e-05, No Iterations 33
time step continuity errors : sum local = 9.70634e-06, global = 2.03228e-19, cumulative = -9.47813e-19
ExecutionTime = 0.35 s  ClockTime = 0 s

Time = 81

DILUPBiCGStab:  Solving for Ux, Initial residual = 0.00730923, Final residual = 1.07661e-05, No Iterations 1
DILUPBiCGStab:  Solving for Uy, Initial residual = 0.00791134, Final residual = 1.20556e-05, No Iterations 1
DILUPBiCGStab:  Solving for T, Initial residual = 0.00234434, Final residual = 6.38559e-06, No Iterations 1
DICPCG:  Solving for p_rgh, Initial residual = 0.00710294, Final residual = 5.04615e-05, No Iterations 33
time step continuity errors : sum local = 9.26935e-06, global = 4.06456e-19, cumulative = -5.41357e-19
ExecutionTime = 0.35 s  ClockTime = 0 s

Time = 82

DILUPBiCGStab:  Solving for Ux, Initial residual = 0.00719438, Final residual = 1.05356e-05, No Iterations 1
DILUPBiCGStab:  Solving for Uy, Initial residual = 0.00779214, Final residual = 1.17806e-05, No Iterations 1
DILUPBiCGStab:  Solving for T, Initial residual = 0.00232195, Final residual = 6.27445e-06, No Iterations 1
DICPCG:  Solving for p_rgh, Initial residual = 0.00700837, Final residual = 4.82161e-05, No Iterations 33
time step continuity errors : sum local = 8.85758e-06, global = 1.70194e-19, cumulative = -3.71163e-19
ExecutionTime = 0.36 s  ClockTime = 0 s

Time = 83

DILUPBiCGStab:  Solving for Ux, Initial residual = 0.00708238, Final residual = 1.03096e-05, No Iterations 1
DILUPBiCGStab:  Solving for Uy, Initial residual = 0.00767529, Final residual = 1.15139e-05, No Iterations 1
DILUPBiCGStab:  Solving for T, Initial residual = 0.00230013, Final residual = 6.16683e-06, No Iterations 1
DICPCG:  Solving for p_rgh, Initial residual = 0.00691562, Final residual = 4.61427e-05, No Iterations 33
time step continuity errors : sum local = 8.4779e-06, global = -5.75412e-20, cumulative = -4.28704e-19
ExecutionTime = 0.36 s  ClockTime = 0 s

Time = 84

DILUPBiCGStab:  Solving for Ux, Initial residual = 0.00697475, Final residual = 1.00886e-05, No Iterations 1
DILUPBiCGStab:  Solving for Uy, Initial residual = 0.00756065, Final residual = 1.12575e-05, No Iterations 1
DILUPBiCGStab:  Solving for T, Initial residual = 0.00227886, Final residual = 6.06244e-06, No Iterations 1
DICPCG:  Solving for p_rgh, Initial residual = 0.00682447, Final residual = 4.42121e-05, No Iterations 33
time step continuity errors : sum local = 8.12707e-06, global = -2.5234e-19, cumulative = -6.81044e-19
ExecutionTime = 0.37 s  ClockTime = 0 s

Time = 85

DILUPBiCGStab:  Solving for Ux, Initial residual = 0.00686887, Final residual = 9.87478e-06, No Iterations 1
DILUPBiCGStab:  Solving for Uy, Initial residual = 0.00744881, Final residual = 1.10114e-05, No Iterations 1
DILUPBiCGStab:  Solving for T, Initial residual = 0.00225811, Final residual = 5.96125e-06, No Iterations 1
DICPCG:  Solving for p_rgh, Initial residual = 0.00673642, Final residual = 4.24225e-05, No Iterations 33
time step continuity errors : sum local = 7.80193e-06, global = 6.45201e-20, cumulative = -6.16524e-19
ExecutionTime = 0.37 s  ClockTime = 0 s

Time = 86

DILUPBiCGStab:  Solving for Ux, Initial residual = 0.0067649, Final residual = 9.6691e-06, No Iterations 1
DILUPBiCGStab:  Solving for Uy, Initial residual = 0.0073395, Final residual = 1.07715e-05, No Iterations 1
DILUPBiCGStab:  Solving for T, Initial residual = 0.00223787, Final residual = 5.86311e-06, No Iterations 1
DICPCG:  Solving for p_rgh, Initial residual = 0.00665046, Final residual = 4.07587e-05, No Iterations 33
time step continuity errors : sum local = 7.49989e-06, global = 1.82497e-20, cumulative = -5.98274e-19
ExecutionTime = 0.38 s  ClockTime = 0 s

Time = 87

DILUPBiCGStab:  Solving for Ux, Initial residual = 0.00666386, Final residual = 9.47043e-06, No Iterations 1
DILUPBiCGStab:  Solving for Uy, Initial residual = 0.00723281, Final residual = 1.05375e-05, No Iterations 1
DILUPBiCGStab:  Solving for T, Initial residual = 0.00221811, Final residual = 5.76789e-06, No Iterations 1
DICPCG:  Solving for p_rgh, Initial residual = 0.00656804, Final residual = 3.92557e-05, No Iterations 33
time step continuity errors : sum local = 7.22817e-06, global = -3.60185e-19, cumulative = -9.5846e-19
ExecutionTime = 0.38 s  ClockTime = 0 s

Time = 88

DILUPBiCGStab:  Solving for Ux, Initial residual = 0.00656479, Final residual = 9.27986e-06, No Iterations 1
DILUPBiCGStab:  Solving for Uy, Initial residual = 0.00712895, Final residual = 1.03103e-05, No Iterations 1
DILUPBiCGStab:  Solving for T, Initial residual = 0.00219882, Final residual = 5.67625e-06, No Iterations 1
DICPCG:  Solving for p_rgh, Initial residual = 0.0064907, Final residual = 3.79291e-05, No Iterations 33
time step continuity errors : sum local = 6.99206e-06, global = -1.74793e-19, cumulative = -1.13325e-18
ExecutionTime = 0.38 s  ClockTime = 0 s

Time = 89

DILUPBiCGStab:  Solving for Ux, Initial residual = 0.00646811, Final residual = 9.09665e-06, No Iterations 1
DILUPBiCGStab:  Solving for Uy, Initial residual = 0.00702786, Final residual = 1.00922e-05, No Iterations 1
DILUPBiCGStab:  Solving for T, Initial residual = 0.00217999, Final residual = 5.58793e-06, No Iterations 1
DICPCG:  Solving for p_rgh, Initial residual = 0.00641377, Final residual = 3.68248e-05, No Iterations 33
time step continuity errors : sum local = 6.79853e-06, global = -1.98264e-19, cumulative = -1.33152e-18
ExecutionTime = 0.39 s  ClockTime = 0 s

Time = 90

DILUPBiCGStab:  Solving for Ux, Initial residual = 0.00637347, Final residual = 8.91971e-06, No Iterations 1
DILUPBiCGStab:  Solving for Uy, Initial residual = 0.0069288, Final residual = 9.88047e-06, No Iterations 1
DILUPBiCGStab:  Solving for T, Initial residual = 0.00216159, Final residual = 5.50225e-06, No Iterations 1
DICPCG:  Solving for p_rgh, Initial residual = 0.00633645, Final residual = 3.60212e-05, No Iterations 33
time step continuity errors : sum local = 6.66002e-06, global = 3.87999e-19, cumulative = -9.43518e-19
ExecutionTime = 0.39 s  ClockTime = 0 s

Time = 91

DILUPBiCGStab:  Solving for Ux, Initial residual = 0.006281, Final residual = 8.74831e-06, No Iterations 1
DILUPBiCGStab:  Solving for Uy, Initial residual = 0.00683193, Final residual = 9.67581e-06, No Iterations 1
DILUPBiCGStab:  Solving for T, Initial residual = 0.00214361, Final residual = 5.41952e-06, No Iterations 1
DICPCG:  Solving for p_rgh, Initial residual = 0.00625987, Final residual = 3.5616e-05, No Iterations 33
time step continuity errors : sum local = 6.59288e-06, global = 1.64911e-20, cumulative = -9.27027e-19
ExecutionTime = 0.39 s  ClockTime = 0 s

Time = 92

DILUPBiCGStab:  Solving for Ux, Initial residual = 0.00618987, Final residual = 8.58149e-06, No Iterations 1
DILUPBiCGStab:  Solving for Uy, Initial residual = 0.00673703, Final residual = 9.47633e-06, No Iterations 1
DILUPBiCGStab:  Solving for T, Initial residual = 0.00212604, Final residual = 5.341e-06, No Iterations 1
DICPCG:  Solving for p_rgh, Initial residual = 0.00618403, Final residual = 3.57195e-05, No Iterations 33
time step continuity errors : sum local = 6.61685e-06, global = -1.78464e-19, cumulative = -1.10549e-18
ExecutionTime = 0.4 s  ClockTime = 0 s

Time = 93

DILUPBiCGStab:  Solving for Ux, Initial residual = 0.00609941, Final residual = 8.41738e-06, No Iterations 1
DILUPBiCGStab:  Solving for Uy, Initial residual = 0.0066437, Final residual = 9.2813e-06, No Iterations 1
DILUPBiCGStab:  Solving for T, Initial residual = 0.00210886, Final residual = 5.26457e-06, No Iterations 1
DICPCG:  Solving for p_rgh, Initial residual = 0.00610905, Final residual = 3.61658e-05, No Iterations 33
time step continuity errors : sum local = 6.702e-06, global = -1.92783e-19, cumulative = -1.29827e-18
ExecutionTime = 0.4 s  ClockTime = 0 s

Time = 94

DILUPBiCGStab:  Solving for Ux, Initial residual = 0.00601118, Final residual = 8.25546e-06, No Iterations 1
DILUPBiCGStab:  Solving for Uy, Initial residual = 0.00655204, Final residual = 9.0931e-06, No Iterations 1
DILUPBiCGStab:  Solving for T, Initial residual = 0.00209206, Final residual = 5.19001e-06, No Iterations 1
DICPCG:  Solving for p_rgh, Initial residual = 0.00603506, Final residual = 3.63832e-05, No Iterations 33
time step continuity errors : sum local = 6.74585e-06, global = -6.71567e-20, cumulative = -1.36543e-18
ExecutionTime = 0.41 s  ClockTime = 0 s

Time = 95

DILUPBiCGStab:  Solving for Ux, Initial residual = 0.00592659, Final residual = 8.09737e-06, No Iterations 1
DILUPBiCGStab:  Solving for Uy, Initial residual = 0.00646202, Final residual = 8.90974e-06, No Iterations 1
DILUPBiCGStab:  Solving for T, Initial residual = 0.00207562, Final residual = 5.11726e-06, No Iterations 1
DICPCG:  Solving for p_rgh, Initial residual = 0.00596177, Final residual = 3.60939e-05, No Iterations 33
time step continuity errors : sum local = 6.69899e-06, global = -1.54571e-20, cumulative = -1.38089e-18
ExecutionTime = 0.41 s  ClockTime = 0 s

Time = 96

DILUPBiCGStab:  Solving for Ux, Initial residual = 0.00584621, Final residual = 7.9449e-06, No Iterations 1
DILUPBiCGStab:  Solving for Uy, Initial residual = 0.00637404, Final residual = 8.73209e-06, No Iterations 1
DILUPBiCGStab:  Solving for T, Initial residual = 0.00205955, Final residual = 5.04626e-06, No Iterations 1
DICPCG:  Solving for p_rgh, Initial residual = 0.00589158, Final residual = 3.56015e-05, No Iterations 33
time step continuity errors : sum local = 6.61631e-06, global = 8.66084e-20, cumulative = -1.29428e-18
ExecutionTime = 0.41 s  ClockTime = 0 s

Time = 97

DILUPBiCGStab:  Solving for Ux, Initial residual = 0.00576777, Final residual = 7.79807e-06, No Iterations 1
DILUPBiCGStab:  Solving for Uy, Initial residual = 0.0062879, Final residual = 8.56245e-06, No Iterations 1
DILUPBiCGStab:  Solving for T, Initial residual = 0.00204381, Final residual = 4.97695e-06, No Iterations 1
DICPCG:  Solving for p_rgh, Initial residual = 0.00582555, Final residual = 3.51792e-05, No Iterations 33
time step continuity errors : sum local = 6.54699e-06, global = -3.03474e-19, cumulative = -1.59775e-18
ExecutionTime = 0.42 s  ClockTime = 0 s

Time = 98

DILUPBiCGStab:  Solving for Ux, Initial residual = 0.0056893, Final residual = 7.65702e-06, No Iterations 1
DILUPBiCGStab:  Solving for Uy, Initial residual = 0.00620331, Final residual = 8.39694e-06, No Iterations 1
DILUPBiCGStab:  Solving for T, Initial residual = 0.00202841, Final residual = 4.90929e-06, No Iterations 1
DICPCG:  Solving for p_rgh, Initial residual = 0.005762, Final residual = 3.49344e-05, No Iterations 33
time step continuity errors : sum local = 6.51043e-06, global = 1.65643e-19, cumulative = -1.43211e-18
ExecutionTime = 0.42 s  ClockTime = 0 s

Time = 99

DILUPBiCGStab:  Solving for Ux, Initial residual = 0.00561196, Final residual = 7.51958e-06, No Iterations 1
DILUPBiCGStab:  Solving for Uy, Initial residual = 0.00612008, Final residual = 8.23677e-06, No Iterations 1
DILUPBiCGStab:  Solving for T, Initial residual = 0.00201332, Final residual = 4.84321e-06, No Iterations 1
DICPCG:  Solving for p_rgh, Initial residual = 0.00570001, Final residual = 3.48684e-05, No Iterations 33
time step continuity errors : sum local = 6.50666e-06, global = -2.46086e-20, cumulative = -1.45672e-18
ExecutionTime = 0.42 s  ClockTime = 0 s

Time = 100

DILUPBiCGStab:  Solving for Ux, Initial residual = 0.00553578, Final residual = 7.38495e-06, No Iterations 1
DILUPBiCGStab:  Solving for Uy, Initial residual = 0.00603833, Final residual = 8.07958e-06, No Iterations 1
DILUPBiCGStab:  Solving for T, Initial residual = 0.00199855, Final residual = 4.77866e-06, No Iterations 1
DICPCG:  Solving for p_rgh, Initial residual = 0.00564028, Final residual = 3.49949e-05, No Iterations 33
time step continuity errors : sum local = 6.53831e-06, global = -6.21213e-19, cumulative = -2.07793e-18
ExecutionTime = 0.43 s  ClockTime = 0 s

Time = 101

DILUPBiCGStab:  Solving for Ux, Initial residual = 0.00546065, Final residual = 7.25563e-06, No Iterations 1
DILUPBiCGStab:  Solving for Uy, Initial residual = 0.00595842, Final residual = 7.92811e-06, No Iterations 1
DILUPBiCGStab:  Solving for T, Initial residual = 0.00198408, Final residual = 4.71594e-06, No Iterations 1
DICPCG:  Solving for p_rgh, Initial residual = 0.00558321, Final residual = 3.5287e-05, No Iterations 33
time step continuity errors : sum local = 6.60045e-06, global = 9.54877e-20, cumulative = -1.98244e-18
ExecutionTime = 0.44 s  ClockTime = 0 s

Time = 102

DILUPBiCGStab:  Solving for Ux, Initial residual = 0.00538699, Final residual = 7.13127e-06, No Iterations 1
DILUPBiCGStab:  Solving for Uy, Initial residual = 0.00587967, Final residual = 7.78184e-06, No Iterations 1
DILUPBiCGStab:  Solving for T, Initial residual = 0.00196989, Final residual = 4.65521e-06, No Iterations 1
DICPCG:  Solving for p_rgh, Initial residual = 0.00553136, Final residual = 3.57163e-05, No Iterations 33
time step continuity errors : sum local = 6.68786e-06, global = 6.18318e-20, cumulative = -1.92061e-18
ExecutionTime = 0.44 s  ClockTime = 0 s

Time = 103

DILUPBiCGStab:  Solving for Ux, Initial residual = 0.00531573, Final residual = 7.01009e-06, No Iterations 1
DILUPBiCGStab:  Solving for Uy, Initial residual = 0.00580202, Final residual = 7.63971e-06, No Iterations 1
DILUPBiCGStab:  Solving for T, Initial residual = 0.00195598, Final residual = 4.5959e-06, No Iterations 1
DICPCG:  Solving for p_rgh, Initial residual = 0.00548106, Final residual = 3.62573e-05, No Iterations 33
time step continuity errors : sum local = 6.79589e-06, global = -2.54411e-19, cumulative = -2.17502e-18
ExecutionTime = 0.44 s  ClockTime = 0 s

Time = 104

DILUPBiCGStab:  Solving for Ux, Initial residual = 0.00524533, Final residual = 6.8925e-06, No Iterations 1
DILUPBiCGStab:  Solving for Uy, Initial residual = 0.00572577, Final residual = 7.50202e-06, No Iterations 1
DILUPBiCGStab:  Solving for T, Initial residual = 0.00194231, Final residual = 4.53795e-06, No Iterations 1
DICPCG:  Solving for p_rgh, Initial residual = 0.00543086, Final residual = 3.68979e-05, No Iterations 33
time step continuity errors : sum local = 6.92226e-06, global = 2.82741e-19, cumulative = -1.89228e-18
ExecutionTime = 0.45 s  ClockTime = 0 s

Time = 105

DILUPBiCGStab:  Solving for Ux, Initial residual = 0.00517629, Final residual = 6.77773e-06, No Iterations 1
DILUPBiCGStab:  Solving for Uy, Initial residual = 0.00565084, Final residual = 7.36897e-06, No Iterations 1
DILUPBiCGStab:  Solving for T, Initial residual = 0.00192889, Final residual = 4.48128e-06, No Iterations 1
DICPCG:  Solving for p_rgh, Initial residual = 0.00538077, Final residual = 3.76185e-05, No Iterations 33
time step continuity errors : sum local = 7.06336e-06, global = -2.8119e-19, cumulative = -2.17347e-18
ExecutionTime = 0.45 s  ClockTime = 0 s

Time = 106

DILUPBiCGStab:  Solving for Ux, Initial residual = 0.0051087, Final residual = 6.66466e-06, No Iterations 1
DILUPBiCGStab:  Solving for Uy, Initial residual = 0.00557686, Final residual = 7.23835e-06, No Iterations 1
DILUPBiCGStab:  Solving for T, Initial residual = 0.0019157, Final residual = 4.4259e-06, No Iterations 1
DICPCG:  Solving for p_rgh, Initial residual = 0.00533085, Final residual = 3.84274e-05, No Iterations 33
time step continuity errors : sum local = 7.22069e-06, global = 2.90804e-19, cumulative = -1.88267e-18
ExecutionTime = 0.46 s  ClockTime = 0 s

Time = 107

DILUPBiCGStab:  Solving for Ux, Initial residual = 0.00504235, Final residual = 6.55416e-06, No Iterations 1
DILUPBiCGStab:  Solving for Uy, Initial residual = 0.00550392, Final residual = 7.11077e-06, No Iterations 1
DILUPBiCGStab:  Solving for T, Initial residual = 0.00190272, Final residual = 4.37168e-06, No Iterations 1
DICPCG:  Solving for p_rgh, Initial residual = 0.00528112, Final residual = 3.93077e-05, No Iterations 33
time step continuity errors : sum local = 7.39114e-06, global = 3.71301e-19, cumulative = -1.51137e-18
ExecutionTime = 0.46 s  ClockTime = 0 s

Time = 108

DILUPBiCGStab:  Solving for Ux, Initial residual = 0.00497758, Final residual = 6.44723e-06, No Iterations 1
DILUPBiCGStab:  Solving for Uy, Initial residual = 0.00543237, Final residual = 6.98658e-06, No Iterations 1
DILUPBiCGStab:  Solving for T, Initial residual = 0.00188996, Final residual = 4.3186e-06, No Iterations 1
DICPCG:  Solving for p_rgh, Initial residual = 0.0052316, Final residual = 4.02404e-05, No Iterations 33
time step continuity errors : sum local = 7.57111e-06, global = 2.63615e-19, cumulative = -1.24775e-18
ExecutionTime = 0.46 s  ClockTime = 0 s

Time = 109

DILUPBiCGStab:  Solving for Ux, Initial residual = 0.00491425, Final residual = 6.34329e-06, No Iterations 1
DILUPBiCGStab:  Solving for Uy, Initial residual = 0.00536199, Final residual = 6.866e-06, No Iterations 1
DILUPBiCGStab:  Solving for T, Initial residual = 0.00187739, Final residual = 4.26663e-06, No Iterations 1
DICPCG:  Solving for p_rgh, Initial residual = 0.0051823, Final residual = 4.11975e-05, No Iterations 33
time step continuity errors : sum local = 7.75535e-06, global = -1.00141e-19, cumulative = -1.34789e-18
ExecutionTime = 0.47 s  ClockTime = 0 s

Time = 110

DILUPBiCGStab:  Solving for Ux, Initial residual = 0.00485238, Final residual = 6.24094e-06, No Iterations 1
DILUPBiCGStab:  Solving for Uy, Initial residual = 0.00529278, Final residual = 6.74754e-06, No Iterations 1
DILUPBiCGStab:  Solving for T, Initial residual = 0.001865, Final residual = 4.21568e-06, No Iterations 1
DICPCG:  Solving for p_rgh, Initial residual = 0.00513346, Final residual = 4.21874e-05, No Iterations 33
time step continuity errors : sum local = 7.94553e-06, global = -1.04612e-19, cumulative = -1.45251e-18
ExecutionTime = 0.47 s  ClockTime = 0 s

Time = 111

DILUPBiCGStab:  Solving for Ux, Initial residual = 0.00479185, Final residual = 6.14079e-06, No Iterations 1
DILUPBiCGStab:  Solving for Uy, Initial residual = 0.00522456, Final residual = 6.63156e-06, No Iterations 1
DILUPBiCGStab:  Solving for T, Initial residual = 0.00185278, Final residual = 4.16574e-06, No Iterations 1
DICPCG:  Solving for p_rgh, Initial residual = 0.0050849, Final residual = 4.31744e-05, No Iterations 33
time step continuity errors : sum local = 8.13494e-06, global = 1.0601e-19, cumulative = -1.3465e-18
ExecutionTime = 0.47 s  ClockTime = 0 s

Time = 112

DILUPBiCGStab:  Solving for Ux, Initial residual = 0.00473241, Final residual = 6.04319e-06, No Iterations 1
DILUPBiCGStab:  Solving for Uy, Initial residual = 0.00515747, Final residual = 6.51833e-06, No Iterations 1
DILUPBiCGStab:  Solving for T, Initial residual = 0.00184067, Final residual = 4.11667e-06, No Iterations 1
DICPCG:  Solving for p_rgh, Initial residual = 0.00503721, Final residual = 4.4174e-05, No Iterations 33
time step continuity errors : sum local = 8.32659e-06, global = 1.20439e-19, cumulative = -1.22606e-18
ExecutionTime = 0.48 s  ClockTime = 0 s

Time = 113

DILUPBiCGStab:  Solving for Ux, Initial residual = 0.00467363, Final residual = 5.94859e-06, No Iterations 1
DILUPBiCGStab:  Solving for Uy, Initial residual = 0.00509139, Final residual = 6.40755e-06, No Iterations 1
DILUPBiCGStab:  Solving for T, Initial residual = 0.0018287, Final residual = 4.06853e-06, No Iterations 1
DICPCG:  Solving for p_rgh, Initial residual = 0.00499062, Final residual = 4.51712e-05, No Iterations 33
time step continuity errors : sum local = 8.51765e-06, global = 1.92707e-19, cumulative = -1.03335e-18
ExecutionTime = 0.48 s  ClockTime = 0 s

Time = 114

DILUPBiCGStab:  Solving for Ux, Initial residual = 0.00461623, Final residual = 5.85624e-06, No Iterations 1
DILUPBiCGStab:  Solving for Uy, Initial residual = 0.00502649, Final residual = 6.29974e-06, No Iterations 1
DILUPBiCGStab:  Solving for T, Initial residual = 0.00181688, Final residual = 4.02124e-06, No Iterations 1
DICPCG:  Solving for p_rgh, Initial residual = 0.00494519, Final residual = 4.61273e-05, No Iterations 33
time step continuity errors : sum local = 8.7011e-06, global = -1.12652e-19, cumulative = -1.146e-18
ExecutionTime = 0.49 s  ClockTime = 0 s

Time = 115

DILUPBiCGStab:  Solving for Ux, Initial residual = 0.00456008, Final residual = 5.76549e-06, No Iterations 1
DILUPBiCGStab:  Solving for Uy, Initial residual = 0.00496279, Final residual = 6.19468e-06, No Iterations 1
DILUPBiCGStab:  Solving for T, Initial residual = 0.00180525, Final residual = 3.97549e-06, No Iterations 1
DICPCG:  Solving for p_rgh, Initial residual = 0.00490041, Final residual = 4.70282e-05, No Iterations 33
time step continuity errors : sum local = 8.87475e-06, global = -1.62851e-20, cumulative = -1.16229e-18
ExecutionTime = 0.5 s  ClockTime = 0 s

Time = 116

DILUPBiCGStab:  Solving for Ux, Initial residual = 0.00450439, Final residual = 5.6761e-06, No Iterations 1
DILUPBiCGStab:  Solving for Uy, Initial residual = 0.0049001, Final residual = 6.09369e-06, No Iterations 1
DILUPBiCGStab:  Solving for T, Initial residual = 0.00179383, Final residual = 3.93081e-06, No Iterations 1
DICPCG:  Solving for p_rgh, Initial residual = 0.00485594, Final residual = 4.78508e-05, No Iterations 33
time step continuity errors : sum local = 9.03575e-06, global = 2.28247e-19, cumulative = -9.3404e-19
ExecutionTime = 0.5 s  ClockTime = 0 s

Time = 117

DILUPBiCGStab:  Solving for Ux, Initial residual = 0.00444934, Final residual = 5.58946e-06, No Iterations 1
DILUPBiCGStab:  Solving for Uy, Initial residual = 0.0048383, Final residual = 5.99505e-06, No Iterations 1
DILUPBiCGStab:  Solving for T, Initial residual = 0.00178261, Final residual = 3.88709e-06, No Iterations 1
DICPCG:  Solving for p_rgh, Initial residual = 0.00481328, Final residual = 3.1842e-05, No Iterations 34
time step continuity errors : sum local = 6.03991e-06, global = -1.4424e-20, cumulative = -9.48463e-19
ExecutionTime = 0.51 s  ClockTime = 0 s

Time = 118

DILUPBiCGStab:  Solving for Ux, Initial residual = 0.00438697, Final residual = 5.49112e-06, No Iterations 1
DILUPBiCGStab:  Solving for Uy, Initial residual = 0.00477808, Final residual = 5.91467e-06, No Iterations 1
DILUPBiCGStab:  Solving for T, Initial residual = 0.00177157, Final residual = 3.84429e-06, No Iterations 1
DICPCG:  Solving for p_rgh, Initial residual = 0.00477222, Final residual = 3.18181e-05, No Iterations 34
time step continuity errors : sum local = 6.03607e-06, global = 1.36768e-19, cumulative = -8.11696e-19
ExecutionTime = 0.51 s  ClockTime = 0 s

Time = 119

DILUPBiCGStab:  Solving for Ux, Initial residual = 0.00434007, Final residual = 5.42557e-06, No Iterations 1
DILUPBiCGStab:  Solving for Uy, Initial residual = 0.0047176, Final residual = 5.80943e-06, No Iterations 1
DILUPBiCGStab:  Solving for T, Initial residual = 0.00176073, Final residual = 3.8025e-06, No Iterations 1
DICPCG:  Solving for p_rgh, Initial residual = 0.00473091, Final residual = 3.17337e-05, No Iterations 34
time step continuity errors : sum local = 6.02064e-06, global = 3.14743e-19, cumulative = -4.96953e-19
ExecutionTime = 0.52 s  ClockTime = 0 s

Time = 120

DILUPBiCGStab:  Solving for Ux, Initial residual = 0.00429266, Final residual = 5.35329e-06, No Iterations 1
DILUPBiCGStab:  Solving for Uy, Initial residual = 0.00465824, Final residual = 5.70914e-06, No Iterations 1
DILUPBiCGStab:  Solving for T, Initial residual = 0.00175007, Final residual = 3.76212e-06, No Iterations 1
DICPCG:  Solving for p_rgh, Initial residual = 0.00468962, Final residual = 3.19201e-05, No Iterations 34
time step continuity errors : sum local = 6.06337e-06, global = -4.09299e-19, cumulative = -9.06252e-19
ExecutionTime = 0.52 s  ClockTime = 0 s

Time = 121

DILUPBiCGStab:  Solving for Ux, Initial residual = 0.00424161, Final residual = 5.2746e-06, No Iterations 1
DILUPBiCGStab:  Solving for Uy, Initial residual = 0.00460027, Final residual = 5.61654e-06, No Iterations 1
DILUPBiCGStab:  Solving for T, Initial residual = 0.00173959, Final residual = 3.72271e-06, No Iterations 1
DICPCG:  Solving for p_rgh, Initial residual = 0.00464864, Final residual = 3.19426e-05, No Iterations 34
time step continuity errors : sum local = 6.07037e-06, global = 3.99166e-19, cumulative = -5.07086e-19
ExecutionTime = 0.52 s  ClockTime = 0 s

Time = 122

DILUPBiCGStab:  Solving for Ux, Initial residual = 0.00418999, Final residual = 5.19446e-06, No Iterations 1
DILUPBiCGStab:  Solving for Uy, Initial residual = 0.00454321, Final residual = 5.5293e-06, No Iterations 1
DILUPBiCGStab:  Solving for T, Initial residual = 0.00172928, Final residual = 3.68402e-06, No Iterations 1
DICPCG:  Solving for p_rgh, Initial residual = 0.00460795, Final residual = 3.21614e-05, No Iterations 34
time step continuity errors : sum local = 6.11768e-06, global = -3.87503e-19, cumulative = -8.94589e-19
ExecutionTime = 0.53 s  ClockTime = 0 s

Time = 123

DILUPBiCGStab:  Solving for Ux, Initial residual = 0.00414031, Final residual = 5.12033e-06, No Iterations 1
DILUPBiCGStab:  Solving for Uy, Initial residual = 0.00448699, Final residual = 5.44194e-06, No Iterations 1
DILUPBiCGStab:  Solving for T, Initial residual = 0.00171914, Final residual = 3.64604e-06, No Iterations 1
DICPCG:  Solving for p_rgh, Initial residual = 0.00456752, Final residual = 3.21975e-05, No Iterations 34
time step continuity errors : sum local = 6.12773e-06, global = -7.30298e-19, cumulative = -1.62489e-18
ExecutionTime = 0.53 s  ClockTime = 0 s

Time = 124

DILUPBiCGStab:  Solving for Ux, Initial residual = 0.00409258, Final residual = 5.04951e-06, No Iterations 1
DILUPBiCGStab:  Solving for Uy, Initial residual = 0.00443147, Final residual = 5.35687e-06, No Iterations 1
DILUPBiCGStab:  Solving for T, Initial residual = 0.00170916, Final residual = 3.60873e-06, No Iterations 1
DICPCG:  Solving for p_rgh, Initial residual = 0.00452733, Final residual = 3.21993e-05, No Iterations 34
time step continuity errors : sum local = 6.1326e-06, global = 4.10462e-19, cumulative = -1.21443e-18
ExecutionTime = 0.54 s  ClockTime = 0 s

Time = 125

DILUPBiCGStab:  Solving for Ux, Initial residual = 0.00404541, Final residual = 4.98074e-06, No Iterations 1
DILUPBiCGStab:  Solving for Uy, Initial residual = 0.00437684, Final residual = 5.27359e-06, No Iterations 1
DILUPBiCGStab:  Solving for T, Initial residual = 0.00169935, Final residual = 3.57208e-06, No Iterations 1
DICPCG:  Solving for p_rgh, Initial residual = 0.00448732, Final residual = 3.20835e-05, No Iterations 34
time step continuity errors : sum local = 6.11357e-06, global = 1.1154e-19, cumulative = -1.10289e-18
ExecutionTime = 0.54 s  ClockTime = 0 s

Time = 126

DILUPBiCGStab:  Solving for Ux, Initial residual = 0.00399887, Final residual = 4.91258e-06, No Iterations 1
DILUPBiCGStab:  Solving for Uy, Initial residual = 0.00432305, Final residual = 5.1931e-06, No Iterations 1
DILUPBiCGStab:  Solving for T, Initial residual = 0.00168969, Final residual = 3.53608e-06, No Iterations 1
DICPCG:  Solving for p_rgh, Initial residual = 0.00444767, Final residual = 3.19367e-05, No Iterations 34
time step continuity errors : sum local = 6.08944e-06, global = -2.13762e-19, cumulative = -1.31665e-18
ExecutionTime = 0.55 s  ClockTime = 0 s

Time = 127

DILUPBiCGStab:  Solving for Ux, Initial residual = 0.00395317, Final residual = 4.8466e-06, No Iterations 1
DILUPBiCGStab:  Solving for Uy, Initial residual = 0.00427, Final residual = 5.11396e-06, No Iterations 1
DILUPBiCGStab:  Solving for T, Initial residual = 0.00168018, Final residual = 3.50071e-06, No Iterations 1
DICPCG:  Solving for p_rgh, Initial residual = 0.00440878, Final residual = 3.1707e-05, No Iterations 34
time step continuity errors : sum local = 6.04837e-06, global = 2.01858e-19, cumulative = -1.11479e-18
ExecutionTime = 0.55 s  ClockTime = 0 s

Time = 128

DILUPBiCGStab:  Solving for Ux, Initial residual = 0.00390831, Final residual = 4.7815e-06, No Iterations 1
DILUPBiCGStab:  Solving for Uy, Initial residual = 0.00421762, Final residual = 5.03682e-06, No Iterations 1
DILUPBiCGStab:  Solving for T, Initial residual = 0.00167081, Final residual = 3.46596e-06, No Iterations 1
DICPCG:  Solving for p_rgh, Initial residual = 0.00437066, Final residual = 3.14748e-05, No Iterations 34
time step continuity errors : sum local = 6.00737e-06, global = 5.46469e-19, cumulative = -5.6832e-19
ExecutionTime = 0.55 s  ClockTime = 0 s

Time = 129

DILUPBiCGStab:  Solving for Ux, Initial residual = 0.00386422, Final residual = 4.71806e-06, No Iterations 1
DILUPBiCGStab:  Solving for Uy, Initial residual = 0.00416594, Final residual = 4.96141e-06, No Iterations 1
DILUPBiCGStab:  Solving for T, Initial residual = 0.0016616, Final residual = 3.43225e-06, No Iterations 1
DICPCG:  Solving for p_rgh, Initial residual = 0.00433303, Final residual = 3.11245e-05, No Iterations 34
time step continuity errors : sum local = 5.94276e-06, global = 9.22169e-20, cumulative = -4.76103e-19
ExecutionTime = 0.56 s  ClockTime = 0 s

Time = 130

DILUPBiCGStab:  Solving for Ux, Initial residual = 0.003821, Final residual = 4.65495e-06, No Iterations 1
DILUPBiCGStab:  Solving for Uy, Initial residual = 0.00411516, Final residual = 4.88844e-06, No Iterations 1
DILUPBiCGStab:  Solving for T, Initial residual = 0.00165252, Final residual = 3.39912e-06, No Iterations 1
DICPCG:  Solving for p_rgh, Initial residual = 0.00429654, Final residual = 3.07973e-05, No Iterations 34
time step continuity errors : sum local = 5.88307e-06, global = -5.79464e-19, cumulative = -1.05557e-18
ExecutionTime = 0.56 s  ClockTime = 0 s

Time = 131

DILUPBiCGStab:  Solving for Ux, Initial residual = 0.00377867, Final residual = 4.59342e-06, No Iterations 1
DILUPBiCGStab:  Solving for Uy, Initial residual = 0.00406533, Final residual = 4.81733e-06, No Iterations 1
DILUPBiCGStab:  Solving for T, Initial residual = 0.00164358, Final residual = 3.36655e-06, No Iterations 1
DICPCG:  Solving for p_rgh, Initial residual = 0.00426113, Final residual = 3.03425e-05, No Iterations 34
time step continuity errors : sum local = 5.79777e-06, global = -2.70541e-19, cumulative = -1.32611e-18
ExecutionTime = 0.57 s  ClockTime = 0 s

Time = 132

DILUPBiCGStab:  Solving for Ux, Initial residual = 0.00373712, Final residual = 4.5329e-06, No Iterations 1
DILUPBiCGStab:  Solving for Uy, Initial residual = 0.00401626, Final residual = 4.74805e-06, No Iterations 1
DILUPBiCGStab:  Solving for T, Initial residual = 0.00163477, Final residual = 3.33453e-06, No Iterations 1
DICPCG:  Solving for p_rgh, Initial residual = 0.00422665, Final residual = 2.99113e-05, No Iterations 34
time step continuity errors : sum local = 5.71753e-06, global = -3.02402e-19, cumulative = -1.62851e-18
ExecutionTime = 0.57 s  ClockTime = 0 s

Time = 133

DILUPBiCGStab:  Solving for Ux, Initial residual = 0.00369623, Final residual = 4.47483e-06, No Iterations 1
DILUPBiCGStab:  Solving for Uy, Initial residual = 0.00396801, Final residual = 4.67925e-06, No Iterations 1
DILUPBiCGStab:  Solving for T, Initial residual = 0.00162609, Final residual = 3.30305e-06, No Iterations 1
DICPCG:  Solving for p_rgh, Initial residual = 0.00419398, Final residual = 2.93961e-05, No Iterations 34
time step continuity errors : sum local = 5.61973e-06, global = -3.5551e-19, cumulative = -1.98402e-18
ExecutionTime = 0.57 s  ClockTime = 0 s

Time = 134

DILUPBiCGStab:  Solving for Ux, Initial residual = 0.00365635, Final residual = 4.41669e-06, No Iterations 1
DILUPBiCGStab:  Solving for Uy, Initial residual = 0.00392043, Final residual = 4.61237e-06, No Iterations 1
DILUPBiCGStab:  Solving for T, Initial residual = 0.00161754, Final residual = 3.27213e-06, No Iterations 1
[...]

DILUPBiCGStab:  Solving for Ux, Initial residual = 0.0010785, Final residual = 1.00037e-06, No Iterations 1
DILUPBiCGStab:  Solving for Uy, Initial residual = 0.00120013, Final residual = 1.0109e-06, No Iterations 1
DILUPBiCGStab:  Solving for T, Initial residual = 0.000140484, Final residual = 1.76302e-07, No Iterations 1
DICPCG:  Solving for p_rgh, Initial residual = 0.000317156, Final residual = 2.86083e-06, No Iterations 17
time step continuity errors : sum local = 9.75005e-07, global = -4.59292e-19, cumulative = 1.50167e-17
ExecutionTime = 3.84 s  ClockTime = 4 s

Time = 968

DILUPBiCGStab:  Solving for Ux, Initial residual = 0.00107817, Final residual = 9.9998e-07, No Iterations 1
DILUPBiCGStab:  Solving for Uy, Initial residual = 0.00120022, Final residual = 1.01087e-06, No Iterations 1
DILUPBiCGStab:  Solving for T, Initial residual = 0.000140094, Final residual = 1.75811e-07, No Iterations 1
DICPCG:  Solving for p_rgh, Initial residual = 0.000316161, Final residual = 2.85181e-06, No Iterations 17
time step continuity errors : sum local = 9.72309e-07, global = 1.27696e-19, cumulative = 1.51444e-17
ExecutionTime = 3.85 s  ClockTime = 4 s

Time = 969

DILUPBiCGStab:  Solving for Ux, Initial residual = 0.00107784, Final residual = 9.99592e-07, No Iterations 1
DILUPBiCGStab:  Solving for Uy, Initial residual = 0.0012003, Final residual = 1.01084e-06, No Iterations 1
DILUPBiCGStab:  Solving for T, Initial residual = 0.000139705, Final residual = 1.75321e-07, No Iterations 1
DICPCG:  Solving for p_rgh, Initial residual = 0.00031517, Final residual = 2.84283e-06, No Iterations 17
time step continuity errors : sum local = 9.6962e-07, global = 2.0054e-18, cumulative = 1.71498e-17
ExecutionTime = 3.85 s  ClockTime = 4 s

Time = 970

DILUPBiCGStab:  Solving for Ux, Initial residual = 0.0010775, Final residual = 9.99201e-07, No Iterations 1
DILUPBiCGStab:  Solving for Uy, Initial residual = 0.00120039, Final residual = 1.01081e-06, No Iterations 1
DILUPBiCGStab:  Solving for T, Initial residual = 0.000139317, Final residual = 1.74833e-07, No Iterations 1
DICPCG:  Solving for p_rgh, Initial residual = 0.000314182, Final residual = 2.83388e-06, No Iterations 17
time step continuity errors : sum local = 9.66938e-07, global = 4.02113e-19, cumulative = 1.75519e-17
ExecutionTime = 3.85 s  ClockTime = 4 s

Time = 971

DILUPBiCGStab:  Solving for Ux, Initial residual = 0.00107717, Final residual = 9.98809e-07, No Iterations 1
DILUPBiCGStab:  Solving for Uy, Initial residual = 0.00120047, Final residual = 1.01078e-06, No Iterations 1
DILUPBiCGStab:  Solving for T, Initial residual = 0.00013893, Final residual = 1.74346e-07, No Iterations 1
DICPCG:  Solving for p_rgh, Initial residual = 0.000313197, Final residual = 2.82496e-06, No Iterations 17
time step continuity errors : sum local = 9.64263e-07, global = -5.95833e-20, cumulative = 1.74923e-17
ExecutionTime = 3.86 s  ClockTime = 4 s

Time = 972

DILUPBiCGStab:  Solving for Ux, Initial residual = 0.00107683, Final residual = 9.98418e-07, No Iterations 1
DILUPBiCGStab:  Solving for Uy, Initial residual = 0.00120056, Final residual = 1.01074e-06, No Iterations 1
DILUPBiCGStab:  Solving for T, Initial residual = 0.000138544, Final residual = 1.73861e-07, No Iterations 1
DICPCG:  Solving for p_rgh, Initial residual = 0.000312216, Final residual = 2.81607e-06, No Iterations 17
time step continuity errors : sum local = 9.61595e-07, global = -7.16131e-19, cumulative = 1.67762e-17
ExecutionTime = 3.86 s  ClockTime = 4 s

Time = 973

DILUPBiCGStab:  Solving for Ux, Initial residual = 0.00107649, Final residual = 9.98025e-07, No Iterations 1
DILUPBiCGStab:  Solving for Uy, Initial residual = 0.00120064, Final residual = 1.01071e-06, No Iterations 1
DILUPBiCGStab:  Solving for T, Initial residual = 0.00013816, Final residual = 1.73377e-07, No Iterations 1
DICPCG:  Solving for p_rgh, Initial residual = 0.000311238, Final residual = 2.80721e-06, No Iterations 17
time step continuity errors : sum local = 9.58934e-07, global = 1.5096e-20, cumulative = 1.67913e-17
ExecutionTime = 3.86 s  ClockTime = 4 s

Time = 974

DILUPBiCGStab:  Solving for Ux, Initial residual = 0.00107615, Final residual = 9.97631e-07, No Iterations 1
DILUPBiCGStab:  Solving for Uy, Initial residual = 0.00120072, Final residual = 1.01067e-06, No Iterations 1
DILUPBiCGStab:  Solving for T, Initial residual = 0.000137776, Final residual = 1.72894e-07, No Iterations 1
DICPCG:  Solving for p_rgh, Initial residual = 0.000310263, Final residual = 2.79838e-06, No Iterations 17
time step continuity errors : sum local = 9.56281e-07, global = -6.34266e-19, cumulative = 1.6157e-17
ExecutionTime = 3.87 s  ClockTime = 4 s

Time = 975

DILUPBiCGStab:  Solving for Ux, Initial residual = 0.00107581, Final residual = 9.97234e-07, No Iterations 1
DILUPBiCGStab:  Solving for Uy, Initial residual = 0.00120079, Final residual = 1.01064e-06, No Iterations 1
DILUPBiCGStab:  Solving for T, Initial residual = 0.000137393, Final residual = 1.72413e-07, No Iterations 1
DICPCG:  Solving for p_rgh, Initial residual = 0.000309292, Final residual = 2.78958e-06, No Iterations 17
time step continuity errors : sum local = 9.53634e-07, global = 1.45519e-19, cumulative = 1.63025e-17
ExecutionTime = 3.87 s  ClockTime = 4 s

Time = 976

DILUPBiCGStab:  Solving for Ux, Initial residual = 0.00107546, Final residual = 9.96834e-07, No Iterations 1
DILUPBiCGStab:  Solving for Uy, Initial residual = 0.00120087, Final residual = 1.0106e-06, No Iterations 1
DILUPBiCGStab:  Solving for T, Initial residual = 0.000137012, Final residual = 1.71933e-07, No Iterations 1
DICPCG:  Solving for p_rgh, Initial residual = 0.000308324, Final residual = 2.78082e-06, No Iterations 17
time step continuity errors : sum local = 9.50994e-07, global = 1.57772e-19, cumulative = 1.64603e-17
ExecutionTime = 3.87 s  ClockTime = 4 s

Time = 977

DILUPBiCGStab:  Solving for Ux, Initial residual = 0.00107511, Final residual = 9.96432e-07, No Iterations 1
DILUPBiCGStab:  Solving for Uy, Initial residual = 0.00120094, Final residual = 1.01056e-06, No Iterations 1
DILUPBiCGStab:  Solving for T, Initial residual = 0.000136631, Final residual = 1.71454e-07, No Iterations 1
DICPCG:  Solving for p_rgh, Initial residual = 0.00030736, Final residual = 2.77208e-06, No Iterations 17
time step continuity errors : sum local = 9.48362e-07, global = 3.90546e-19, cumulative = 1.68508e-17
ExecutionTime = 3.88 s  ClockTime = 4 s

Time = 978

DILUPBiCGStab:  Solving for Ux, Initial residual = 0.00107477, Final residual = 9.96028e-07, No Iterations 1
DILUPBiCGStab:  Solving for Uy, Initial residual = 0.00120102, Final residual = 1.01052e-06, No Iterations 1
DILUPBiCGStab:  Solving for T, Initial residual = 0.000136252, Final residual = 1.70977e-07, No Iterations 1
DICPCG:  Solving for p_rgh, Initial residual = 0.000306399, Final residual = 2.76338e-06, No Iterations 17
time step continuity errors : sum local = 9.45736e-07, global = 6.13794e-20, cumulative = 1.69122e-17
ExecutionTime = 3.88 s  ClockTime = 4 s

Time = 979

DILUPBiCGStab:  Solving for Ux, Initial residual = 0.00107442, Final residual = 9.95622e-07, No Iterations 1
DILUPBiCGStab:  Solving for Uy, Initial residual = 0.00120109, Final residual = 1.01048e-06, No Iterations 1
DILUPBiCGStab:  Solving for T, Initial residual = 0.000135873, Final residual = 1.70501e-07, No Iterations 1
DICPCG:  Solving for p_rgh, Initial residual = 0.000305441, Final residual = 2.7547e-06, No Iterations 17
time step continuity errors : sum local = 9.43117e-07, global = -2.27353e-18, cumulative = 1.46387e-17
ExecutionTime = 3.88 s  ClockTime = 4 s

Time = 980

DILUPBiCGStab:  Solving for Ux, Initial residual = 0.00107407, Final residual = 9.95215e-07, No Iterations 1
DILUPBiCGStab:  Solving for Uy, Initial residual = 0.00120115, Final residual = 1.01044e-06, No Iterations 1
DILUPBiCGStab:  Solving for T, Initial residual = 0.000135496, Final residual = 1.70026e-07, No Iterations 1
DICPCG:  Solving for p_rgh, Initial residual = 0.000304487, Final residual = 2.74606e-06, No Iterations 17
time step continuity errors : sum local = 9.40506e-07, global = 9.71703e-19, cumulative = 1.56104e-17
ExecutionTime = 3.89 s  ClockTime = 4 s

Time = 981

DILUPBiCGStab:  Solving for Ux, Initial residual = 0.00107371, Final residual = 9.94807e-07, No Iterations 1
DILUPBiCGStab:  Solving for Uy, Initial residual = 0.00120122, Final residual = 1.0104e-06, No Iterations 1
DILUPBiCGStab:  Solving for T, Initial residual = 0.000135119, Final residual = 1.69553e-07, No Iterations 1
DICPCG:  Solving for p_rgh, Initial residual = 0.000303536, Final residual = 2.73744e-06, No Iterations 17
time step continuity errors : sum local = 9.37901e-07, global = 4.20699e-19, cumulative = 1.60311e-17
ExecutionTime = 3.9 s  ClockTime = 4 s

Time = 982

DILUPBiCGStab:  Solving for Ux, Initial residual = 0.00107336, Final residual = 9.94398e-07, No Iterations 1
DILUPBiCGStab:  Solving for Uy, Initial residual = 0.00120129, Final residual = 1.01036e-06, No Iterations 1
DILUPBiCGStab:  Solving for T, Initial residual = 0.000134744, Final residual = 1.6908e-07, No Iterations 1
DICPCG:  Solving for p_rgh, Initial residual = 0.000302588, Final residual = 2.72886e-06, No Iterations 17
time step continuity errors : sum local = 9.35304e-07, global = -1.21647e-18, cumulative = 1.48146e-17
ExecutionTime = 3.9 s  ClockTime = 4 s

Time = 983

DILUPBiCGStab:  Solving for Ux, Initial residual = 0.001073, Final residual = 9.93987e-07, No Iterations 1
DILUPBiCGStab:  Solving for Uy, Initial residual = 0.00120135, Final residual = 1.01031e-06, No Iterations 1
DILUPBiCGStab:  Solving for T, Initial residual = 0.00013437, Final residual = 1.6861e-07, No Iterations 1
DICPCG:  Solving for p_rgh, Initial residual = 0.000301643, Final residual = 2.7203e-06, No Iterations 17
time step continuity errors : sum local = 9.32713e-07, global = 1.12822e-18, cumulative = 1.59428e-17
ExecutionTime = 3.91 s  ClockTime = 4 s

Time = 984

DILUPBiCGStab:  Solving for Ux, Initial residual = 0.00107264, Final residual = 9.93572e-07, No Iterations 1
DILUPBiCGStab:  Solving for Uy, Initial residual = 0.00120141, Final residual = 1.01027e-06, No Iterations 1
DILUPBiCGStab:  Solving for T, Initial residual = 0.000133997, Final residual = 1.6814e-07, No Iterations 1
DICPCG:  Solving for p_rgh, Initial residual = 0.000300702, Final residual = 2.71177e-06, No Iterations 17
time step continuity errors : sum local = 9.30129e-07, global = 8.17823e-19, cumulative = 1.67606e-17
ExecutionTime = 3.91 s  ClockTime = 4 s

Time = 985

DILUPBiCGStab:  Solving for Ux, Initial residual = 0.00107227, Final residual = 9.93152e-07, No Iterations 1
DILUPBiCGStab:  Solving for Uy, Initial residual = 0.00120147, Final residual = 1.01022e-06, No Iterations 1
DILUPBiCGStab:  Solving for T, Initial residual = 0.000133625, Final residual = 1.67672e-07, No Iterations 1
DICPCG:  Solving for p_rgh, Initial residual = 0.000299764, Final residual = 2.70328e-06, No Iterations 17
time step continuity errors : sum local = 9.27552e-07, global = 4.62808e-19, cumulative = 1.72235e-17
ExecutionTime = 3.92 s  ClockTime = 4 s

Time = 986

DILUPBiCGStab:  Solving for Ux, Initial residual = 0.00107189, Final residual = 9.92726e-07, No Iterations 1
DILUPBiCGStab:  Solving for Uy, Initial residual = 0.00120153, Final residual = 1.01017e-06, No Iterations 1
DILUPBiCGStab:  Solving for T, Initial residual = 0.000133253, Final residual = 1.67205e-07, No Iterations 1
DICPCG:  Solving for p_rgh, Initial residual = 0.000298829, Final residual = 2.69481e-06, No Iterations 17
time step continuity errors : sum local = 9.24982e-07, global = -3.45141e-19, cumulative = 1.68783e-17
ExecutionTime = 3.92 s  ClockTime = 4 s

Time = 987

DILUPBiCGStab:  Solving for Ux, Initial residual = 0.00107151, Final residual = 9.92297e-07, No Iterations 1
DILUPBiCGStab:  Solving for Uy, Initial residual = 0.00120159, Final residual = 1.01012e-06, No Iterations 1
DILUPBiCGStab:  Solving for T, Initial residual = 0.000132883, Final residual = 1.6674e-07, No Iterations 1
DICPCG:  Solving for p_rgh, Initial residual = 0.000297898, Final residual = 2.68637e-06, No Iterations 17
time step continuity errors : sum local = 9.22419e-07, global = 6.66255e-19, cumulative = 1.75446e-17
ExecutionTime = 3.92 s  ClockTime = 4 s

Time = 988

DILUPBiCGStab:  Solving for Ux, Initial residual = 0.00107113, Final residual = 9.91867e-07, No Iterations 1
DILUPBiCGStab:  Solving for Uy, Initial residual = 0.00120164, Final residual = 1.01007e-06, No Iterations 1
DILUPBiCGStab:  Solving for T, Initial residual = 0.000132514, Final residual = 1.66276e-07, No Iterations 1
DICPCG:  Solving for p_rgh, Initial residual = 0.000296969, Final residual = 2.67797e-06, No Iterations 17
time step continuity errors : sum local = 9.19862e-07, global = 1.60023e-18, cumulative = 1.91448e-17
ExecutionTime = 3.93 s  ClockTime = 4 s

Time = 989

DILUPBiCGStab:  Solving for Ux, Initial residual = 0.00107075, Final residual = 9.91435e-07, No Iterations 1
DILUPBiCGStab:  Solving for Uy, Initial residual = 0.00120169, Final residual = 1.01002e-06, No Iterations 1
DILUPBiCGStab:  Solving for T, Initial residual = 0.000132146, Final residual = 1.65813e-07, No Iterations 1
DICPCG:  Solving for p_rgh, Initial residual = 0.000296044, Final residual = 2.66959e-06, No Iterations 17
time step continuity errors : sum local = 9.17313e-07, global = -6.06117e-19, cumulative = 1.85387e-17
ExecutionTime = 3.93 s  ClockTime = 4 s

Time = 990

DILUPBiCGStab:  Solving for Ux, Initial residual = 0.00107037, Final residual = 9.91002e-07, No Iterations 1
DILUPBiCGStab:  Solving for Uy, Initial residual = 0.00120175, Final residual = 1.00997e-06, No Iterations 1
DILUPBiCGStab:  Solving for T, Initial residual = 0.000131779, Final residual = 1.65351e-07, No Iterations 1
DICPCG:  Solving for p_rgh, Initial residual = 0.000295122, Final residual = 2.66124e-06, No Iterations 17
time step continuity errors : sum local = 9.1477e-07, global = 1.26248e-19, cumulative = 1.86649e-17
ExecutionTime = 3.94 s  ClockTime = 4 s

Time = 991

DILUPBiCGStab:  Solving for Ux, Initial residual = 0.00106998, Final residual = 9.90567e-07, No Iterations 1
DILUPBiCGStab:  Solving for Uy, Initial residual = 0.0012018, Final residual = 1.00992e-06, No Iterations 1
DILUPBiCGStab:  Solving for T, Initial residual = 0.000131413, Final residual = 1.64891e-07, No Iterations 1
DICPCG:  Solving for p_rgh, Initial residual = 0.000294203, Final residual = 2.65291e-06, No Iterations 17
time step continuity errors : sum local = 9.12234e-07, global = -2.01832e-19, cumulative = 1.84631e-17
ExecutionTime = 3.94 s  ClockTime = 4 s

Time = 992

DILUPBiCGStab:  Solving for Ux, Initial residual = 0.0010696, Final residual = 9.9013e-07, No Iterations 1
DILUPBiCGStab:  Solving for Uy, Initial residual = 0.00120184, Final residual = 1.00986e-06, No Iterations 1
DILUPBiCGStab:  Solving for T, Initial residual = 0.000131048, Final residual = 1.64431e-07, No Iterations 1
DICPCG:  Solving for p_rgh, Initial residual = 0.000293288, Final residual = 2.64462e-06, No Iterations 17
time step continuity errors : sum local = 9.09705e-07, global = 4.98777e-19, cumulative = 1.89619e-17
ExecutionTime = 3.94 s  ClockTime = 4 s

Time = 993

DILUPBiCGStab:  Solving for Ux, Initial residual = 0.00106921, Final residual = 9.89692e-07, No Iterations 1
DILUPBiCGStab:  Solving for Uy, Initial residual = 0.00120189, Final residual = 1.0098e-06, No Iterations 1
DILUPBiCGStab:  Solving for T, Initial residual = 0.000130684, Final residual = 1.63974e-07, No Iterations 1
DICPCG:  Solving for p_rgh, Initial residual = 0.000292375, Final residual = 2.63636e-06, No Iterations 17
time step continuity errors : sum local = 9.07183e-07, global = -9.98407e-19, cumulative = 1.79635e-17
ExecutionTime = 3.95 s  ClockTime = 4 s

Time = 994

DILUPBiCGStab:  Solving for Ux, Initial residual = 0.00106882, Final residual = 9.89251e-07, No Iterations 1
DILUPBiCGStab:  Solving for Uy, Initial residual = 0.00120194, Final residual = 1.00975e-06, No Iterations 1
DILUPBiCGStab:  Solving for T, Initial residual = 0.000130321, Final residual = 1.63517e-07, No Iterations 1
DICPCG:  Solving for p_rgh, Initial residual = 0.000291466, Final residual = 2.62812e-06, No Iterations 17
time step continuity errors : sum local = 9.04667e-07, global = -1.11545e-18, cumulative = 1.6848e-17
ExecutionTime = 3.95 s  ClockTime = 4 s

Time = 995

DILUPBiCGStab:  Solving for Ux, Initial residual = 0.00106842, Final residual = 9.88808e-07, No Iterations 1
DILUPBiCGStab:  Solving for Uy, Initial residual = 0.00120198, Final residual = 1.00969e-06, No Iterations 1
DILUPBiCGStab:  Solving for T, Initial residual = 0.000129959, Final residual = 1.63062e-07, No Iterations 1
DICPCG:  Solving for p_rgh, Initial residual = 0.000290559, Final residual = 2.61991e-06, No Iterations 17
time step continuity errors : sum local = 9.02158e-07, global = 9.15069e-19, cumulative = 1.77631e-17
ExecutionTime = 3.96 s  ClockTime = 4 s

Time = 996

DILUPBiCGStab:  Solving for Ux, Initial residual = 0.00106802, Final residual = 9.88363e-07, No Iterations 1
DILUPBiCGStab:  Solving for Uy, Initial residual = 0.00120202, Final residual = 1.00963e-06, No Iterations 1
DILUPBiCGStab:  Solving for T, Initial residual = 0.000129598, Final residual = 1.62608e-07, No Iterations 1
DICPCG:  Solving for p_rgh, Initial residual = 0.000289656, Final residual = 2.61173e-06, No Iterations 17
time step continuity errors : sum local = 8.99656e-07, global = 7.42705e-19, cumulative = 1.85058e-17
ExecutionTime = 3.96 s  ClockTime = 4 s

Time = 997

DILUPBiCGStab:  Solving for Ux, Initial residual = 0.00106762, Final residual = 9.87917e-07, No Iterations 1
DILUPBiCGStab:  Solving for Uy, Initial residual = 0.00120206, Final residual = 1.00957e-06, No Iterations 1
DILUPBiCGStab:  Solving for T, Initial residual = 0.000129238, Final residual = 1.62155e-07, No Iterations 1
DICPCG:  Solving for p_rgh, Initial residual = 0.000288756, Final residual = 2.60358e-06, No Iterations 17
time step continuity errors : sum local = 8.97161e-07, global = -1.14182e-18, cumulative = 1.7364e-17
ExecutionTime = 3.96 s  ClockTime = 4 s

Time = 998

DILUPBiCGStab:  Solving for Ux, Initial residual = 0.00106722, Final residual = 9.87469e-07, No Iterations 1
DILUPBiCGStab:  Solving for Uy, Initial residual = 0.0012021, Final residual = 1.00951e-06, No Iterations 1
DILUPBiCGStab:  Solving for T, Initial residual = 0.000128879, Final residual = 1.61704e-07, No Iterations 1
DICPCG:  Solving for p_rgh, Initial residual = 0.000287859, Final residual = 2.59546e-06, No Iterations 17
time step continuity errors : sum local = 8.94672e-07, global = -5.16471e-19, cumulative = 1.68475e-17
ExecutionTime = 3.97 s  ClockTime = 4 s

Time = 999

DILUPBiCGStab:  Solving for Ux, Initial residual = 0.00106682, Final residual = 9.8702e-07, No Iterations 1
DILUPBiCGStab:  Solving for Uy, Initial residual = 0.00120214, Final residual = 1.00944e-06, No Iterations 1
DILUPBiCGStab:  Solving for T, Initial residual = 0.000128522, Final residual = 1.61253e-07, No Iterations 1
DICPCG:  Solving for p_rgh, Initial residual = 0.000286965, Final residual = 2.58737e-06, No Iterations 17
time step continuity errors : sum local = 8.9219e-07, global = -9.68839e-20, cumulative = 1.67506e-17
ExecutionTime = 3.97 s  ClockTime = 4 s

Time = 1000

DILUPBiCGStab:  Solving for Ux, Initial residual = 0.00106641, Final residual = 9.86569e-07, No Iterations 1
DILUPBiCGStab:  Solving for Uy, Initial residual = 0.00120217, Final residual = 1.00938e-06, No Iterations 1
DILUPBiCGStab:  Solving for T, Initial residual = 0.000128165, Final residual = 1.60805e-07, No Iterations 1
DICPCG:  Solving for p_rgh, Initial residual = 0.000286074, Final residual = 2.5793e-06, No Iterations 17
time step continuity errors : sum local = 8.89714e-07, global = 1.93677e-19, cumulative = 1.69443e-17
ExecutionTime = 3.98 s  ClockTime = 4 s

End

